* NGSPICE file created from hellorld.ext - technology: gf180mcuD

* Black-box entry subcircuit for gf180mcu_fd_sc_mcu7t5v0__filltie abstract view
.subckt gf180mcu_fd_sc_mcu7t5v0__filltie VDD VSS
.ends

* Black-box entry subcircuit for gf180mcu_fd_sc_mcu7t5v0__fillcap_8 abstract view
.subckt gf180mcu_fd_sc_mcu7t5v0__fillcap_8 VDD VNW VPW VSS
.ends

* Black-box entry subcircuit for gf180mcu_fd_sc_mcu7t5v0__buf_1 abstract view
.subckt gf180mcu_fd_sc_mcu7t5v0__buf_1 I Z VDD VNW VPW VSS
.ends

* Black-box entry subcircuit for gf180mcu_fd_sc_mcu7t5v0__dffq_1 abstract view
.subckt gf180mcu_fd_sc_mcu7t5v0__dffq_1 D CLK Q VDD VNW VPW VSS
.ends

* Black-box entry subcircuit for gf180mcu_fd_sc_mcu7t5v0__fillcap_16 abstract view
.subckt gf180mcu_fd_sc_mcu7t5v0__fillcap_16 VDD VNW VPW VSS
.ends

* Black-box entry subcircuit for gf180mcu_fd_sc_mcu7t5v0__fillcap_4 abstract view
.subckt gf180mcu_fd_sc_mcu7t5v0__fillcap_4 VDD VNW VPW VSS
.ends

* Black-box entry subcircuit for gf180mcu_fd_sc_mcu7t5v0__mux2_2 abstract view
.subckt gf180mcu_fd_sc_mcu7t5v0__mux2_2 I0 I1 S Z VDD VNW VPW VSS
.ends

* Black-box entry subcircuit for gf180mcu_fd_sc_mcu7t5v0__clkinv_1 abstract view
.subckt gf180mcu_fd_sc_mcu7t5v0__clkinv_1 I ZN VDD VNW VPW VSS
.ends

* Black-box entry subcircuit for gf180mcu_fd_sc_mcu7t5v0__clkbuf_1 abstract view
.subckt gf180mcu_fd_sc_mcu7t5v0__clkbuf_1 I Z VDD VNW VPW VSS
.ends

* Black-box entry subcircuit for gf180mcu_fd_sc_mcu7t5v0__clkbuf_2 abstract view
.subckt gf180mcu_fd_sc_mcu7t5v0__clkbuf_2 I Z VDD VNW VPW VSS
.ends

* Black-box entry subcircuit for gf180mcu_fd_sc_mcu7t5v0__fill_1 abstract view
.subckt gf180mcu_fd_sc_mcu7t5v0__fill_1 VDD VNW VPW VSS
.ends

* Black-box entry subcircuit for gf180mcu_fd_sc_mcu7t5v0__antenna abstract view
.subckt gf180mcu_fd_sc_mcu7t5v0__antenna I VDD VNW VPW VSS
.ends

* Black-box entry subcircuit for gf180mcu_fd_sc_mcu7t5v0__fill_2 abstract view
.subckt gf180mcu_fd_sc_mcu7t5v0__fill_2 VDD VNW VPW VSS
.ends

* Black-box entry subcircuit for gf180mcu_fd_sc_mcu7t5v0__fillcap_64 abstract view
.subckt gf180mcu_fd_sc_mcu7t5v0__fillcap_64 VDD VNW VPW VSS
.ends

* Black-box entry subcircuit for gf180mcu_fd_sc_mcu7t5v0__fillcap_32 abstract view
.subckt gf180mcu_fd_sc_mcu7t5v0__fillcap_32 VDD VNW VPW VSS
.ends

* Black-box entry subcircuit for gf180mcu_fd_sc_mcu7t5v0__endcap abstract view
.subckt gf180mcu_fd_sc_mcu7t5v0__endcap VDD VSS
.ends

* Black-box entry subcircuit for gf180mcu_fd_sc_mcu7t5v0__xor2_1 abstract view
.subckt gf180mcu_fd_sc_mcu7t5v0__xor2_1 A1 A2 Z VDD VNW VPW VSS
.ends

* Black-box entry subcircuit for gf180mcu_fd_sc_mcu7t5v0__nand3_2 abstract view
.subckt gf180mcu_fd_sc_mcu7t5v0__nand3_2 A1 A2 A3 ZN VDD VNW VPW VSS
.ends

* Black-box entry subcircuit for gf180mcu_fd_sc_mcu7t5v0__aoi21_1 abstract view
.subckt gf180mcu_fd_sc_mcu7t5v0__aoi21_1 A1 A2 B ZN VDD VNW VPW VSS
.ends

* Black-box entry subcircuit for gf180mcu_fd_sc_mcu7t5v0__xnor2_1 abstract view
.subckt gf180mcu_fd_sc_mcu7t5v0__xnor2_1 A1 A2 ZN VDD VNW VPW VSS
.ends

* Black-box entry subcircuit for gf180mcu_fd_sc_mcu7t5v0__xor2_2 abstract view
.subckt gf180mcu_fd_sc_mcu7t5v0__xor2_2 A1 A2 Z VDD VNW VPW VSS
.ends

* Black-box entry subcircuit for gf180mcu_fd_sc_mcu7t5v0__and3_1 abstract view
.subckt gf180mcu_fd_sc_mcu7t5v0__and3_1 A1 A2 A3 Z VDD VNW VPW VSS
.ends

* Black-box entry subcircuit for gf180mcu_fd_sc_mcu7t5v0__nor4_2 abstract view
.subckt gf180mcu_fd_sc_mcu7t5v0__nor4_2 A1 A2 A3 A4 ZN VDD VNW VPW VSS
.ends

* Black-box entry subcircuit for gf180mcu_fd_sc_mcu7t5v0__buf_4 abstract view
.subckt gf180mcu_fd_sc_mcu7t5v0__buf_4 I Z VDD VNW VPW VSS
.ends

* Black-box entry subcircuit for gf180mcu_fd_sc_mcu7t5v0__nand3_1 abstract view
.subckt gf180mcu_fd_sc_mcu7t5v0__nand3_1 A1 A2 A3 ZN VDD VNW VPW VSS
.ends

* Black-box entry subcircuit for gf180mcu_fd_sc_mcu7t5v0__nor2_1 abstract view
.subckt gf180mcu_fd_sc_mcu7t5v0__nor2_1 A1 A2 ZN VDD VNW VPW VSS
.ends

* Black-box entry subcircuit for gf180mcu_fd_sc_mcu7t5v0__buf_2 abstract view
.subckt gf180mcu_fd_sc_mcu7t5v0__buf_2 I Z VDD VNW VPW VSS
.ends

* Black-box entry subcircuit for gf180mcu_fd_sc_mcu7t5v0__oai22_1 abstract view
.subckt gf180mcu_fd_sc_mcu7t5v0__oai22_1 A1 A2 B1 B2 ZN VDD VNW VPW VSS
.ends

* Black-box entry subcircuit for gf180mcu_fd_sc_mcu7t5v0__aoi211_1 abstract view
.subckt gf180mcu_fd_sc_mcu7t5v0__aoi211_1 A1 A2 B C ZN VDD VNW VPW VSS
.ends

* Black-box entry subcircuit for gf180mcu_fd_sc_mcu7t5v0__clkinv_2 abstract view
.subckt gf180mcu_fd_sc_mcu7t5v0__clkinv_2 I ZN VDD VNW VPW VSS
.ends

* Black-box entry subcircuit for gf180mcu_fd_sc_mcu7t5v0__buf_8 abstract view
.subckt gf180mcu_fd_sc_mcu7t5v0__buf_8 I Z VDD VNW VPW VSS
.ends

* Black-box entry subcircuit for gf180mcu_fd_sc_mcu7t5v0__and4_2 abstract view
.subckt gf180mcu_fd_sc_mcu7t5v0__and4_2 A1 A2 A3 A4 Z VDD VNW VPW VSS
.ends

* Black-box entry subcircuit for gf180mcu_fd_sc_mcu7t5v0__nand2_1 abstract view
.subckt gf180mcu_fd_sc_mcu7t5v0__nand2_1 A1 A2 ZN VDD VNW VPW VSS
.ends

* Black-box entry subcircuit for gf180mcu_fd_sc_mcu7t5v0__and2_1 abstract view
.subckt gf180mcu_fd_sc_mcu7t5v0__and2_1 A1 A2 Z VDD VNW VPW VSS
.ends

* Black-box entry subcircuit for gf180mcu_fd_sc_mcu7t5v0__oai211_1 abstract view
.subckt gf180mcu_fd_sc_mcu7t5v0__oai211_1 A1 A2 B C ZN VDD VNW VPW VSS
.ends

* Black-box entry subcircuit for gf180mcu_fd_sc_mcu7t5v0__nor3_1 abstract view
.subckt gf180mcu_fd_sc_mcu7t5v0__nor3_1 A1 A2 A3 ZN VDD VNW VPW VSS
.ends

* Black-box entry subcircuit for gf180mcu_fd_sc_mcu7t5v0__or2_1 abstract view
.subckt gf180mcu_fd_sc_mcu7t5v0__or2_1 A1 A2 Z VDD VNW VPW VSS
.ends

* Black-box entry subcircuit for gf180mcu_fd_sc_mcu7t5v0__aoi22_1 abstract view
.subckt gf180mcu_fd_sc_mcu7t5v0__aoi22_1 A1 A2 B1 B2 ZN VDD VNW VPW VSS
.ends

* Black-box entry subcircuit for gf180mcu_fd_sc_mcu7t5v0__inv_1 abstract view
.subckt gf180mcu_fd_sc_mcu7t5v0__inv_1 I ZN VDD VNW VPW VSS
.ends

* Black-box entry subcircuit for gf180mcu_fd_sc_mcu7t5v0__nand2_2 abstract view
.subckt gf180mcu_fd_sc_mcu7t5v0__nand2_2 A1 A2 ZN VDD VNW VPW VSS
.ends

* Black-box entry subcircuit for gf180mcu_fd_sc_mcu7t5v0__and4_1 abstract view
.subckt gf180mcu_fd_sc_mcu7t5v0__and4_1 A1 A2 A3 A4 Z VDD VNW VPW VSS
.ends

* Black-box entry subcircuit for gf180mcu_fd_sc_mcu7t5v0__clkbuf_16 abstract view
.subckt gf180mcu_fd_sc_mcu7t5v0__clkbuf_16 I Z VDD VNW VPW VSS
.ends

* Black-box entry subcircuit for gf180mcu_fd_sc_mcu7t5v0__oai31_1 abstract view
.subckt gf180mcu_fd_sc_mcu7t5v0__oai31_1 A1 A2 A3 B ZN VDD VNW VPW VSS
.ends

* Black-box entry subcircuit for gf180mcu_fd_sc_mcu7t5v0__or3_2 abstract view
.subckt gf180mcu_fd_sc_mcu7t5v0__or3_2 A1 A2 A3 Z VDD VNW VPW VSS
.ends

* Black-box entry subcircuit for gf180mcu_fd_sc_mcu7t5v0__nor4_1 abstract view
.subckt gf180mcu_fd_sc_mcu7t5v0__nor4_1 A1 A2 A3 A4 ZN VDD VNW VPW VSS
.ends

* Black-box entry subcircuit for gf180mcu_fd_sc_mcu7t5v0__oai21_1 abstract view
.subckt gf180mcu_fd_sc_mcu7t5v0__oai21_1 A1 A2 B ZN VDD VNW VPW VSS
.ends

* Black-box entry subcircuit for gf180mcu_fd_sc_mcu7t5v0__nand4_2 abstract view
.subckt gf180mcu_fd_sc_mcu7t5v0__nand4_2 A1 A2 A3 A4 ZN VDD VNW VPW VSS
.ends

.subckt hellorld custom_settings[0] custom_settings[10] custom_settings[11] custom_settings[1]
+ custom_settings[2] custom_settings[3] custom_settings[4] custom_settings[5] custom_settings[6]
+ custom_settings[7] custom_settings[8] custom_settings[9] io_out rst_n vdd vss wb_clk_i
XTAP_TAPCELL_ROW_24_117 vdd vss gf180mcu_fd_sc_mcu7t5v0__filltie
XFILLER_0_23_18 vdd vdd vss vss gf180mcu_fd_sc_mcu7t5v0__fillcap_8
X_294_ _060_ _068_ vdd vdd vss vss gf180mcu_fd_sc_mcu7t5v0__buf_1
X_363_ _014_ clknet_2_2__leaf_wb_clk_i baud_delay\[1\] vdd vdd vss vss gf180mcu_fd_sc_mcu7t5v0__dffq_1
XFILLER_0_1_174 vdd vdd vss vss gf180mcu_fd_sc_mcu7t5v0__fillcap_16
XFILLER_0_18_29 vdd vdd vss vss gf180mcu_fd_sc_mcu7t5v0__fillcap_4
X_346_ _108_ uart_frame\[4\] _103_ _109_ vdd vdd vss vss gf180mcu_fd_sc_mcu7t5v0__mux2_2
XFILLER_0_24_94 vdd vdd vss vss gf180mcu_fd_sc_mcu7t5v0__fillcap_4
X_277_ char_pointer\[0\] _053_ vdd vdd vss vss gf180mcu_fd_sc_mcu7t5v0__clkinv_1
X_200_ _097_ _131_ vdd vdd vss vss gf180mcu_fd_sc_mcu7t5v0__clkbuf_1
X_329_ _094_ _095_ vdd vdd vss vss gf180mcu_fd_sc_mcu7t5v0__clkbuf_2
XFILLER_0_10_41 vdd vdd vss vss gf180mcu_fd_sc_mcu7t5v0__fill_1
XFILLER_0_10_96 vdd vdd vss vss gf180mcu_fd_sc_mcu7t5v0__fill_1
XTAP_TAPCELL_ROW_5_67 vdd vss gf180mcu_fd_sc_mcu7t5v0__filltie
XANTENNA__374__CLK clknet_2_3__leaf_wb_clk_i vdd vdd vss vss gf180mcu_fd_sc_mcu7t5v0__antenna
XFILLER_0_21_62 vdd vdd vss vss gf180mcu_fd_sc_mcu7t5v0__fill_2
XFILLER_0_1_72 vdd vdd vss vss gf180mcu_fd_sc_mcu7t5v0__fillcap_64
XFILLER_0_21_142 vdd vdd vss vss gf180mcu_fd_sc_mcu7t5v0__fillcap_4
XFILLER_0_16_51 vdd vdd vss vss gf180mcu_fd_sc_mcu7t5v0__fill_1
XFILLER_0_8_147 vdd vdd vss vss gf180mcu_fd_sc_mcu7t5v0__fill_2
XTAP_TAPCELL_ROW_24_118 vdd vss gf180mcu_fd_sc_mcu7t5v0__filltie
X_293_ _067_ _026_ vdd vdd vss vss gf180mcu_fd_sc_mcu7t5v0__clkinv_1
X_362_ _013_ clknet_2_2__leaf_wb_clk_i baud_delay\[0\] vdd vdd vss vss gf180mcu_fd_sc_mcu7t5v0__dffq_1
XFILLER_0_1_142 vdd vdd vss vss gf180mcu_fd_sc_mcu7t5v0__fillcap_32
XFILLER_0_13_30 vdd vdd vss vss gf180mcu_fd_sc_mcu7t5v0__fill_2
X_276_ char_pointer\[2\] _052_ vdd vdd vss vss gf180mcu_fd_sc_mcu7t5v0__clkinv_1
X_345_ uart_frame\[5\] char_at\[3\] _105_ _108_ vdd vdd vss vss gf180mcu_fd_sc_mcu7t5v0__mux2_2
XPHY_EDGE_ROW_21_Right_21 vdd vss gf180mcu_fd_sc_mcu7t5v0__endcap
XPHY_EDGE_ROW_12_Right_12 vdd vss gf180mcu_fd_sc_mcu7t5v0__endcap
X_259_ net3 baud_delay\[11\] _174_ vdd vdd vss vss gf180mcu_fd_sc_mcu7t5v0__xor2_1
X_328_ _046_ _094_ vdd vdd vss vss gf180mcu_fd_sc_mcu7t5v0__buf_1
XFILLER_0_10_20 vdd vdd vss vss gf180mcu_fd_sc_mcu7t5v0__fillcap_8
XFILLER_0_19_148 vdd vdd vss vss gf180mcu_fd_sc_mcu7t5v0__fillcap_8
XTAP_TAPCELL_ROW_18_98 vdd vss gf180mcu_fd_sc_mcu7t5v0__filltie
XPHY_EDGE_ROW_12_Left_37 vdd vss gf180mcu_fd_sc_mcu7t5v0__endcap
XFILLER_0_21_154 vdd vdd vss vss gf180mcu_fd_sc_mcu7t5v0__fill_1
XANTENNA_input11_I custom_settings[8] vdd vdd vss vss gf180mcu_fd_sc_mcu7t5v0__antenna
XPHY_EDGE_ROW_6_Right_6 vdd vss gf180mcu_fd_sc_mcu7t5v0__endcap
XFILLER_0_8_115 vdd vdd vss vss gf180mcu_fd_sc_mcu7t5v0__fillcap_4
XFILLER_0_12_143 vdd vdd vss vss gf180mcu_fd_sc_mcu7t5v0__fillcap_4
XTAP_TAPCELL_ROW_2_58 vdd vss gf180mcu_fd_sc_mcu7t5v0__filltie
XFILLER_0_7_192 vdd vdd vss vss gf180mcu_fd_sc_mcu7t5v0__fill_1
XFILLER_0_9_2 vdd vdd vss vss gf180mcu_fd_sc_mcu7t5v0__fillcap_4
XANTENNA_input3_I custom_settings[11] vdd vdd vss vss gf180mcu_fd_sc_mcu7t5v0__antenna
XFILLER_0_23_205 vdd vdd vss vss gf180mcu_fd_sc_mcu7t5v0__fill_1
X_292_ _060_ _065_ _066_ _067_ vdd vdd vss vss gf180mcu_fd_sc_mcu7t5v0__nand3_2
XPHY_EDGE_ROW_15_Left_40 vdd vss gf180mcu_fd_sc_mcu7t5v0__endcap
X_361_ _012_ clknet_2_2__leaf_wb_clk_i uart_frame\[9\] vdd vdd vss vss gf180mcu_fd_sc_mcu7t5v0__dffq_1
XFILLER_0_13_64 vdd vdd vss vss gf180mcu_fd_sc_mcu7t5v0__fillcap_4
XFILLER_0_13_53 vdd vdd vss vss gf180mcu_fd_sc_mcu7t5v0__fill_2
XFILLER_0_13_86 vdd vdd vss vss gf180mcu_fd_sc_mcu7t5v0__fill_2
XPHY_EDGE_ROW_0_Left_25 vdd vss gf180mcu_fd_sc_mcu7t5v0__endcap
X_275_ _048_ _050_ char_pointer\[3\] _051_ vdd vdd vss vss gf180mcu_fd_sc_mcu7t5v0__aoi21_1
X_344_ _107_ _007_ vdd vdd vss vss gf180mcu_fd_sc_mcu7t5v0__clkbuf_1
XFILLER_0_19_127 vdd vdd vss vss gf180mcu_fd_sc_mcu7t5v0__fillcap_8
XFILLER_0_19_105 vdd vdd vss vss gf180mcu_fd_sc_mcu7t5v0__fillcap_8
XTAP_TAPCELL_ROW_18_99 vdd vss gf180mcu_fd_sc_mcu7t5v0__filltie
XFILLER_0_3_205 vdd vdd vss vss gf180mcu_fd_sc_mcu7t5v0__fill_1
X_258_ net4 baud_delay\[1\] _173_ vdd vdd vss vss gf180mcu_fd_sc_mcu7t5v0__xor2_1
X_189_ _118_ _122_ _123_ vdd vdd vss vss gf180mcu_fd_sc_mcu7t5v0__xnor2_1
X_327_ _093_ _004_ vdd vdd vss vss gf180mcu_fd_sc_mcu7t5v0__clkbuf_1
XFILLER_0_10_32 vdd vdd vss vss gf180mcu_fd_sc_mcu7t5v0__fill_2
XFILLER_0_10_10 vdd vdd vss vss gf180mcu_fd_sc_mcu7t5v0__fillcap_4
XFILLER_0_18_193 vdd vdd vss vss gf180mcu_fd_sc_mcu7t5v0__fillcap_4
XFILLER_0_21_64 vdd vdd vss vss gf180mcu_fd_sc_mcu7t5v0__fill_1
XFILLER_0_21_42 vdd vdd vss vss gf180mcu_fd_sc_mcu7t5v0__fillcap_4
XFILLER_0_15_174 vdd vdd vss vss gf180mcu_fd_sc_mcu7t5v0__fillcap_4
XFILLER_0_15_130 vdd vdd vss vss gf180mcu_fd_sc_mcu7t5v0__fill_2
XFILLER_0_21_100 vdd vdd vss vss gf180mcu_fd_sc_mcu7t5v0__fill_2
XFILLER_0_8_127 vdd vdd vss vss gf180mcu_fd_sc_mcu7t5v0__fillcap_16
XFILLER_0_12_111 vdd vdd vss vss gf180mcu_fd_sc_mcu7t5v0__fill_2
XFILLER_0_12_166 vdd vdd vss vss gf180mcu_fd_sc_mcu7t5v0__fill_1
XTAP_TAPCELL_ROW_2_59 vdd vss gf180mcu_fd_sc_mcu7t5v0__filltie
X_291_ char_pointer\[0\] net15 _066_ vdd vdd vss vss gf180mcu_fd_sc_mcu7t5v0__xor2_2
X_360_ _011_ clknet_2_2__leaf_wb_clk_i uart_frame\[7\] vdd vdd vss vss gf180mcu_fd_sc_mcu7t5v0__dffq_1
X_274_ char_pointer\[2\] _049_ char_pointer\[0\] _050_ vdd vdd vss vss gf180mcu_fd_sc_mcu7t5v0__and3_1
X_343_ _106_ uart_frame\[3\] _103_ _107_ vdd vdd vss vss gf180mcu_fd_sc_mcu7t5v0__mux2_2
XFILLER_0_24_86 vdd vdd vss vss gf180mcu_fd_sc_mcu7t5v0__fillcap_8
X_257_ _168_ _169_ _170_ _171_ _172_ vdd vdd vss vss gf180mcu_fd_sc_mcu7t5v0__nor4_2
X_188_ baud_delay\[1\] _122_ vdd vdd vss vss gf180mcu_fd_sc_mcu7t5v0__buf_1
X_326_ _092_ _029_ _093_ vdd vdd vss vss gf180mcu_fd_sc_mcu7t5v0__xor2_1
XFILLER_0_19_139 vdd vdd vss vss gf180mcu_fd_sc_mcu7t5v0__fill_1
X_309_ _064_ _081_ vdd vdd vss vss gf180mcu_fd_sc_mcu7t5v0__buf_4
XFILLER_0_15_164 vdd vdd vss vss gf180mcu_fd_sc_mcu7t5v0__fill_2
XFILLER_0_5_109 vdd vdd vss vss gf180mcu_fd_sc_mcu7t5v0__fill_2
XFILLER_0_7_41 vdd vdd vss vss gf180mcu_fd_sc_mcu7t5v0__fillcap_8
XFILLER_0_7_63 vdd vdd vss vss gf180mcu_fd_sc_mcu7t5v0__fillcap_4
XFILLER_0_7_96 vdd vdd vss vss gf180mcu_fd_sc_mcu7t5v0__fill_2
X_290_ _054_ _065_ vdd vdd vss vss gf180mcu_fd_sc_mcu7t5v0__buf_1
XFILLER_0_13_55 vdd vdd vss vss gf180mcu_fd_sc_mcu7t5v0__fill_1
XFILLER_0_9_201 vdd vdd vss vss gf180mcu_fd_sc_mcu7t5v0__fill_2
X_273_ char_pointer\[1\] _049_ vdd vdd vss vss gf180mcu_fd_sc_mcu7t5v0__clkbuf_1
X_342_ uart_frame\[4\] char_at\[2\] _105_ _106_ vdd vdd vss vss gf180mcu_fd_sc_mcu7t5v0__mux2_2
XFILLER_0_24_98 vdd vdd vss vss gf180mcu_fd_sc_mcu7t5v0__fill_2
XFILLER_0_4_53 vdd vdd vss vss gf180mcu_fd_sc_mcu7t5v0__fillcap_4
XFILLER_0_4_64 vdd vdd vss vss gf180mcu_fd_sc_mcu7t5v0__fill_1
X_325_ _081_ _076_ _085_ _092_ vdd vdd vss vss gf180mcu_fd_sc_mcu7t5v0__nand3_1
X_187_ _118_ _121_ _013_ vdd vdd vss vss gf180mcu_fd_sc_mcu7t5v0__nor2_1
XFILLER_0_10_34 vdd vdd vss vss gf180mcu_fd_sc_mcu7t5v0__fill_1
X_256_ net9 baud_delay\[6\] _171_ vdd vdd vss vss gf180mcu_fd_sc_mcu7t5v0__xor2_1
XFILLER_0_24_110 vdd vdd vss vss gf180mcu_fd_sc_mcu7t5v0__fillcap_16
XFILLER_0_21_22 vdd vdd vss vss gf180mcu_fd_sc_mcu7t5v0__fill_2
X_239_ _045_ _157_ _158_ vdd vdd vss vss gf180mcu_fd_sc_mcu7t5v0__xor2_1
X_308_ _080_ _029_ vdd vdd vss vss gf180mcu_fd_sc_mcu7t5v0__buf_2
XTAP_TAPCELL_ROW_10_80 vdd vss gf180mcu_fd_sc_mcu7t5v0__filltie
XFILLER_0_21_157 vdd vdd vss vss gf180mcu_fd_sc_mcu7t5v0__fillcap_4
XTAP_TAPCELL_ROW_6_70 vdd vss gf180mcu_fd_sc_mcu7t5v0__filltie
XFILLER_0_8_107 vdd vdd vss vss gf180mcu_fd_sc_mcu7t5v0__fillcap_8
XFILLER_0_12_113 vdd vdd vss vss gf180mcu_fd_sc_mcu7t5v0__fill_1
XFILLER_0_12_102 vdd vdd vss vss gf180mcu_fd_sc_mcu7t5v0__fill_2
XPHY_EDGE_ROW_19_Right_19 vdd vss gf180mcu_fd_sc_mcu7t5v0__endcap
XFILLER_0_11_190 vdd vdd vss vss gf180mcu_fd_sc_mcu7t5v0__fill_1
XFILLER_0_17_205 vdd vdd vss vss gf180mcu_fd_sc_mcu7t5v0__fill_1
XTAP_TAPCELL_ROW_23_111 vdd vss gf180mcu_fd_sc_mcu7t5v0__filltie
XFILLER_0_7_2 vdd vdd vss vss gf180mcu_fd_sc_mcu7t5v0__fillcap_8
XPHY_EDGE_ROW_19_Left_44 vdd vss gf180mcu_fd_sc_mcu7t5v0__endcap
XANTENNA_input1_I custom_settings[0] vdd vdd vss vss gf180mcu_fd_sc_mcu7t5v0__antenna
XFILLER_0_13_78 vdd vdd vss vss gf180mcu_fd_sc_mcu7t5v0__fillcap_8
XTAP_TAPCELL_ROW_20_103 vdd vss gf180mcu_fd_sc_mcu7t5v0__filltie
X_272_ _047_ _048_ vdd vdd vss vss gf180mcu_fd_sc_mcu7t5v0__buf_2
X_341_ _094_ _105_ vdd vdd vss vss gf180mcu_fd_sc_mcu7t5v0__buf_2
XFILLER_0_6_205 vdd vdd vss vss gf180mcu_fd_sc_mcu7t5v0__fill_1
XFILLER_0_4_32 vdd vdd vss vss gf180mcu_fd_sc_mcu7t5v0__fill_2
XPHY_EDGE_ROW_4_Left_29 vdd vss gf180mcu_fd_sc_mcu7t5v0__endcap
XFILLER_0_4_98 vdd vdd vss vss gf180mcu_fd_sc_mcu7t5v0__fillcap_4
X_255_ net12 baud_delay\[9\] _170_ vdd vdd vss vss gf180mcu_fd_sc_mcu7t5v0__xor2_1
X_186_ _120_ _121_ vdd vdd vss vss gf180mcu_fd_sc_mcu7t5v0__buf_1
X_324_ _088_ _089_ _090_ _091_ _003_ vdd vdd vss vss gf180mcu_fd_sc_mcu7t5v0__oai22_1
XTAP_TAPCELL_ROW_0_50 vdd vss gf180mcu_fd_sc_mcu7t5v0__filltie
XFILLER_0_21_34 vdd vdd vss vss gf180mcu_fd_sc_mcu7t5v0__fillcap_8
X_238_ _155_ _131_ _157_ _167_ _032_ vdd vdd vss vss gf180mcu_fd_sc_mcu7t5v0__aoi211_1
X_307_ _058_ _080_ vdd vdd vss vss gf180mcu_fd_sc_mcu7t5v0__clkinv_2
XFILLER_0_1_66 vdd vdd vss vss gf180mcu_fd_sc_mcu7t5v0__fillcap_4
XPHY_EDGE_ROW_7_Left_32 vdd vss gf180mcu_fd_sc_mcu7t5v0__endcap
XFILLER_0_12_147 vdd vdd vss vss gf180mcu_fd_sc_mcu7t5v0__fill_2
Xoutput14 net14 io_out vdd vdd vss vss gf180mcu_fd_sc_mcu7t5v0__buf_8
XFILLER_0_7_10 vdd vdd vss vss gf180mcu_fd_sc_mcu7t5v0__fill_1
XFILLER_0_7_87 vdd vdd vss vss gf180mcu_fd_sc_mcu7t5v0__fill_1
XFILLER_0_7_98 vdd vdd vss vss gf180mcu_fd_sc_mcu7t5v0__fill_1
XTAP_TAPCELL_ROW_23_112 vdd vss gf180mcu_fd_sc_mcu7t5v0__filltie
XTAP_TAPCELL_ROW_3_61 vdd vss gf180mcu_fd_sc_mcu7t5v0__filltie
XFILLER_0_1_136 vdd vdd vss vss gf180mcu_fd_sc_mcu7t5v0__fillcap_4
XFILLER_0_13_68 vdd vdd vss vss gf180mcu_fd_sc_mcu7t5v0__fill_2
XTAP_TAPCELL_ROW_20_104 vdd vss gf180mcu_fd_sc_mcu7t5v0__filltie
XPHY_EDGE_ROW_20_Left_45 vdd vss gf180mcu_fd_sc_mcu7t5v0__endcap
X_271_ _172_ _038_ _043_ _046_ _047_ vdd vdd vss vss gf180mcu_fd_sc_mcu7t5v0__and4_2
X_340_ _104_ _006_ vdd vdd vss vss gf180mcu_fd_sc_mcu7t5v0__clkbuf_1
XFILLER_0_4_88 vdd vdd vss vss gf180mcu_fd_sc_mcu7t5v0__fillcap_4
X_185_ _060_ _119_ _120_ vdd vdd vss vss gf180mcu_fd_sc_mcu7t5v0__nand2_1
X_254_ net10 baud_delay\[7\] _169_ vdd vdd vss vss gf180mcu_fd_sc_mcu7t5v0__xor2_1
X_323_ _027_ _085_ _091_ vdd vdd vss vss gf180mcu_fd_sc_mcu7t5v0__nor2_1
XTAP_TAPCELL_ROW_0_51 vdd vss gf180mcu_fd_sc_mcu7t5v0__filltie
XANTENNA_clkbuf_0_wb_clk_i_I wb_clk_i vdd vdd vss vss gf180mcu_fd_sc_mcu7t5v0__antenna
XFILLER_0_18_197 vdd vdd vss vss gf180mcu_fd_sc_mcu7t5v0__fill_2
XFILLER_0_18_164 vdd vdd vss vss gf180mcu_fd_sc_mcu7t5v0__fill_2
XFILLER_0_18_153 vdd vdd vss vss gf180mcu_fd_sc_mcu7t5v0__fillcap_4
XFILLER_0_18_142 vdd vdd vss vss gf180mcu_fd_sc_mcu7t5v0__fillcap_4
XFILLER_0_24_134 vdd vdd vss vss gf180mcu_fd_sc_mcu7t5v0__fill_2
XFILLER_0_24_156 vdd vdd vss vss gf180mcu_fd_sc_mcu7t5v0__fill_2
XFILLER_0_21_79 vdd vdd vss vss gf180mcu_fd_sc_mcu7t5v0__fillcap_8
XFILLER_0_21_24 vdd vdd vss vss gf180mcu_fd_sc_mcu7t5v0__fill_1
X_237_ _119_ _156_ _157_ vdd vdd vss vss gf180mcu_fd_sc_mcu7t5v0__nor2_1
X_306_ _059_ _077_ _079_ _000_ vdd vdd vss vss gf180mcu_fd_sc_mcu7t5v0__aoi21_1
XFILLER_0_15_178 vdd vdd vss vss gf180mcu_fd_sc_mcu7t5v0__fill_2
XFILLER_0_15_101 vdd vdd vss vss gf180mcu_fd_sc_mcu7t5v0__fillcap_8
XFILLER_0_21_126 vdd vdd vss vss gf180mcu_fd_sc_mcu7t5v0__fillcap_4
XFILLER_0_12_104 vdd vdd vss vss gf180mcu_fd_sc_mcu7t5v0__fill_1
XPHY_EDGE_ROW_1_Right_1 vdd vss gf180mcu_fd_sc_mcu7t5v0__endcap
XFILLER_0_23_2 vdd vdd vss vss gf180mcu_fd_sc_mcu7t5v0__fillcap_16
XFILLER_0_7_55 vdd vdd vss vss gf180mcu_fd_sc_mcu7t5v0__fillcap_8
XTAP_TAPCELL_ROW_3_62 vdd vss gf180mcu_fd_sc_mcu7t5v0__filltie
XTAP_TAPCELL_ROW_20_105 vdd vss gf180mcu_fd_sc_mcu7t5v0__filltie
X_270_ _044_ frame_counter\[2\] _045_ frame_counter\[0\] _046_ vdd vdd vss vss gf180mcu_fd_sc_mcu7t5v0__nor4_2
XFILLER_0_4_34 vdd vdd vss vss gf180mcu_fd_sc_mcu7t5v0__fill_1
X_322_ _059_ _069_ _090_ vdd vdd vss vss gf180mcu_fd_sc_mcu7t5v0__nand2_1
X_184_ _097_ _119_ vdd vdd vss vss gf180mcu_fd_sc_mcu7t5v0__clkbuf_1
XTAP_TAPCELL_ROW_0_52 vdd vss gf180mcu_fd_sc_mcu7t5v0__filltie
X_253_ net5 baud_delay\[2\] _168_ vdd vdd vss vss gf180mcu_fd_sc_mcu7t5v0__xor2_1
XFILLER_0_10_37 vdd vdd vss vss gf180mcu_fd_sc_mcu7t5v0__fillcap_4
X_236_ frame_counter\[0\] _094_ _156_ vdd vdd vss vss gf180mcu_fd_sc_mcu7t5v0__nor2_1
X_305_ _059_ _028_ _076_ _078_ _079_ vdd vdd vss vss gf180mcu_fd_sc_mcu7t5v0__nor4_2
XFILLER_0_15_113 vdd vdd vss vss gf180mcu_fd_sc_mcu7t5v0__fill_1
X_219_ baud_delay\[9\] _143_ _145_ vdd vdd vss vss gf180mcu_fd_sc_mcu7t5v0__nand2_1
XFILLER_0_12_149 vdd vdd vss vss gf180mcu_fd_sc_mcu7t5v0__fill_1
XPHY_EDGE_ROW_24_Right_24 vdd vss gf180mcu_fd_sc_mcu7t5v0__endcap
XFILLER_0_16_2 vdd vdd vss vss gf180mcu_fd_sc_mcu7t5v0__fillcap_4
XPHY_EDGE_ROW_15_Right_15 vdd vss gf180mcu_fd_sc_mcu7t5v0__endcap
XFILLER_0_4_102 vdd vdd vss vss gf180mcu_fd_sc_mcu7t5v0__fill_2
XFILLER_0_4_168 vdd vdd vss vss gf180mcu_fd_sc_mcu7t5v0__fill_1
XFILLER_0_7_67 vdd vdd vss vss gf180mcu_fd_sc_mcu7t5v0__fill_2
XTAP_TAPCELL_ROW_16_93 vdd vss gf180mcu_fd_sc_mcu7t5v0__filltie
XFILLER_0_13_26 vdd vdd vss vss gf180mcu_fd_sc_mcu7t5v0__fillcap_4
XFILLER_0_9_205 vdd vdd vss vss gf180mcu_fd_sc_mcu7t5v0__fill_1
XFILLER_0_5_2 vdd vdd vss vss gf180mcu_fd_sc_mcu7t5v0__fillcap_4
XFILLER_0_24_36 vdd vdd vss vss gf180mcu_fd_sc_mcu7t5v0__fillcap_32
XFILLER_0_4_57 vdd vdd vss vss gf180mcu_fd_sc_mcu7t5v0__fill_1
X_252_ net13 _167_ vdd vdd vss vss gf180mcu_fd_sc_mcu7t5v0__clkinv_1
X_321_ _078_ _085_ _076_ _089_ vdd vdd vss vss gf180mcu_fd_sc_mcu7t5v0__mux2_2
XTAP_TAPCELL_ROW_0_53 vdd vss gf180mcu_fd_sc_mcu7t5v0__filltie
X_183_ baud_delay\[0\] _118_ vdd vdd vss vss gf180mcu_fd_sc_mcu7t5v0__buf_1
XFILLER_0_18_111 vdd vdd vss vss gf180mcu_fd_sc_mcu7t5v0__fill_2
XFILLER_0_18_199 vdd vdd vss vss gf180mcu_fd_sc_mcu7t5v0__fill_1
XFILLER_0_18_177 vdd vdd vss vss gf180mcu_fd_sc_mcu7t5v0__fillcap_4
XFILLER_0_18_166 vdd vdd vss vss gf180mcu_fd_sc_mcu7t5v0__fill_1
X_304_ _065_ _066_ _078_ vdd vdd vss vss gf180mcu_fd_sc_mcu7t5v0__and2_1
X_235_ frame_counter\[0\] _155_ vdd vdd vss vss gf180mcu_fd_sc_mcu7t5v0__clkinv_1
X_218_ baud_delay\[9\] _143_ _144_ vdd vdd vss vss gf180mcu_fd_sc_mcu7t5v0__nor2_1
XFILLER_0_16_37 vdd vdd vss vss gf180mcu_fd_sc_mcu7t5v0__fill_2
XFILLER_0_7_188 vdd vdd vss vss gf180mcu_fd_sc_mcu7t5v0__fill_2
XANTENNA__370__CLK clknet_2_3__leaf_wb_clk_i vdd vdd vss vss gf180mcu_fd_sc_mcu7t5v0__antenna
XTAP_TAPCELL_ROW_16_94 vdd vss gf180mcu_fd_sc_mcu7t5v0__filltie
XFILLER_0_0_172 vdd vdd vss vss gf180mcu_fd_sc_mcu7t5v0__fillcap_16
XFILLER_0_14_92 vdd vdd vss vss gf180mcu_fd_sc_mcu7t5v0__fillcap_4
XPHY_EDGE_ROW_24_Left_49 vdd vss gf180mcu_fd_sc_mcu7t5v0__endcap
XTAP_TAPCELL_ROW_0_54 vdd vss gf180mcu_fd_sc_mcu7t5v0__filltie
X_182_ _116_ _099_ _117_ _012_ vdd vdd vss vss gf180mcu_fd_sc_mcu7t5v0__aoi21_1
XFILLER_0_10_28 vdd vdd vss vss gf180mcu_fd_sc_mcu7t5v0__fillcap_4
X_320_ _029_ _081_ _088_ vdd vdd vss vss gf180mcu_fd_sc_mcu7t5v0__nand2_1
X_251_ _166_ _036_ vdd vdd vss vss gf180mcu_fd_sc_mcu7t5v0__clkbuf_1
XFILLER_0_24_126 vdd vdd vss vss gf180mcu_fd_sc_mcu7t5v0__fillcap_8
X_303_ _028_ _026_ _069_ _076_ _077_ vdd vdd vss vss gf180mcu_fd_sc_mcu7t5v0__oai211_1
X_234_ _154_ _031_ vdd vdd vss vss gf180mcu_fd_sc_mcu7t5v0__clkinv_1
XFILLER_0_15_148 vdd vdd vss vss gf180mcu_fd_sc_mcu7t5v0__fillcap_16
XFILLER_0_21_118 vdd vdd vss vss gf180mcu_fd_sc_mcu7t5v0__fill_2
X_217_ _120_ _142_ _143_ _021_ vdd vdd vss vss gf180mcu_fd_sc_mcu7t5v0__nor3_1
XFILLER_0_16_49 vdd vdd vss vss gf180mcu_fd_sc_mcu7t5v0__fill_2
XFILLER_0_16_27 vdd vdd vss vss gf180mcu_fd_sc_mcu7t5v0__fillcap_4
XFILLER_0_12_107 vdd vdd vss vss gf180mcu_fd_sc_mcu7t5v0__fillcap_4
XFILLER_0_20_173 vdd vdd vss vss gf180mcu_fd_sc_mcu7t5v0__fill_2
XPHY_EDGE_ROW_11_Left_36 vdd vss gf180mcu_fd_sc_mcu7t5v0__endcap
XFILLER_0_4_104 vdd vdd vss vss gf180mcu_fd_sc_mcu7t5v0__fill_1
XFILLER_0_7_69 vdd vdd vss vss gf180mcu_fd_sc_mcu7t5v0__fill_1
XTAP_TAPCELL_ROW_16_95 vdd vss gf180mcu_fd_sc_mcu7t5v0__filltie
XPHY_EDGE_ROW_5_Right_5 vdd vss gf180mcu_fd_sc_mcu7t5v0__endcap
XFILLER_0_21_2 vdd vdd vss vss gf180mcu_fd_sc_mcu7t5v0__fillcap_16
XFILLER_0_4_37 vdd vdd vss vss gf180mcu_fd_sc_mcu7t5v0__fillcap_16
XTAP_TAPCELL_ROW_0_55 vdd vss gf180mcu_fd_sc_mcu7t5v0__filltie
X_181_ _095_ _102_ _117_ vdd vdd vss vss gf180mcu_fd_sc_mcu7t5v0__nor2_1
X_250_ _062_ _088_ _166_ vdd vdd vss vss gf180mcu_fd_sc_mcu7t5v0__or2_1
XANTENNA__383__CLK clknet_2_3__leaf_wb_clk_i vdd vdd vss vss gf180mcu_fd_sc_mcu7t5v0__antenna
X_379_ _030_ clknet_2_2__leaf_wb_clk_i uart_frame\[0\] vdd vdd vss vss gf180mcu_fd_sc_mcu7t5v0__dffq_1
XFILLER_0_18_146 vdd vdd vss vss gf180mcu_fd_sc_mcu7t5v0__fill_1
XFILLER_0_18_157 vdd vdd vss vss gf180mcu_fd_sc_mcu7t5v0__fill_1
XFILLER_0_18_113 vdd vdd vss vss gf180mcu_fd_sc_mcu7t5v0__fill_1
XFILLER_0_24_138 vdd vdd vss vss gf180mcu_fd_sc_mcu7t5v0__fillcap_16
X_302_ _075_ _076_ vdd vdd vss vss gf180mcu_fd_sc_mcu7t5v0__buf_2
X_233_ uart_frame\[8\] _099_ _117_ uart_frame\[9\] _154_ vdd vdd vss vss gf180mcu_fd_sc_mcu7t5v0__aoi22_1
XFILLER_0_15_138 vdd vdd vss vss gf180mcu_fd_sc_mcu7t5v0__fill_2
XFILLER_0_11_72 vdd vdd vss vss gf180mcu_fd_sc_mcu7t5v0__fillcap_4
XFILLER_0_14_193 vdd vdd vss vss gf180mcu_fd_sc_mcu7t5v0__fillcap_4
X_216_ baud_delay\[8\] _140_ _143_ vdd vdd vss vss gf180mcu_fd_sc_mcu7t5v0__and2_1
XFILLER_0_17_60 vdd vdd vss vss gf180mcu_fd_sc_mcu7t5v0__fillcap_8
XFILLER_0_3_182 vdd vdd vss vss gf180mcu_fd_sc_mcu7t5v0__fillcap_4
XPHY_EDGE_ROW_20_Right_20 vdd vss gf180mcu_fd_sc_mcu7t5v0__endcap
XPHY_EDGE_ROW_11_Right_11 vdd vss gf180mcu_fd_sc_mcu7t5v0__endcap
XFILLER_0_13_18 vdd vdd vss vss gf180mcu_fd_sc_mcu7t5v0__fillcap_8
X_180_ uart_frame\[9\] _116_ vdd vdd vss vss gf180mcu_fd_sc_mcu7t5v0__clkinv_1
XTAP_TAPCELL_ROW_13_86 vdd vss gf180mcu_fd_sc_mcu7t5v0__filltie
XFILLER_0_3_2 vdd vdd vss vss gf180mcu_fd_sc_mcu7t5v0__fillcap_8
XTAP_TAPCELL_ROW_9_76 vdd vss gf180mcu_fd_sc_mcu7t5v0__filltie
X_378_ _029_ clknet_2_1__leaf_wb_clk_i char_pointer\[3\] vdd vdd vss vss gf180mcu_fd_sc_mcu7t5v0__dffq_1
XFILLER_0_21_18 vdd vdd vss vss gf180mcu_fd_sc_mcu7t5v0__fillcap_4
X_301_ net13 _070_ _074_ _075_ vdd vdd vss vss gf180mcu_fd_sc_mcu7t5v0__nand3_1
X_232_ _153_ _030_ vdd vdd vss vss gf180mcu_fd_sc_mcu7t5v0__clkinv_1
XANTENNA__373__CLK clknet_2_3__leaf_wb_clk_i vdd vdd vss vss gf180mcu_fd_sc_mcu7t5v0__antenna
XFILLER_0_14_172 vdd vdd vss vss gf180mcu_fd_sc_mcu7t5v0__fill_2
X_215_ baud_delay\[8\] _140_ _142_ vdd vdd vss vss gf180mcu_fd_sc_mcu7t5v0__nor2_1
XFILLER_0_11_120 vdd vdd vss vss gf180mcu_fd_sc_mcu7t5v0__fill_1
XFILLER_0_11_142 vdd vdd vss vss gf180mcu_fd_sc_mcu7t5v0__fillcap_16
XFILLER_0_16_6 vdd vdd vss vss gf180mcu_fd_sc_mcu7t5v0__fill_1
XFILLER_0_3_150 vdd vdd vss vss gf180mcu_fd_sc_mcu7t5v0__fill_1
XANTENNA_input8_I custom_settings[5] vdd vdd vss vss gf180mcu_fd_sc_mcu7t5v0__antenna
XTAP_TAPCELL_ROW_13_87 vdd vss gf180mcu_fd_sc_mcu7t5v0__filltie
XFILLER_0_14_84 vdd vdd vss vss gf180mcu_fd_sc_mcu7t5v0__fillcap_8
X_377_ _028_ clknet_2_1__leaf_wb_clk_i char_pointer\[2\] vdd vdd vss vss gf180mcu_fd_sc_mcu7t5v0__dffq_1
XTAP_TAPCELL_ROW_9_77 vdd vss gf180mcu_fd_sc_mcu7t5v0__filltie
X_300_ _048_ _073_ _074_ vdd vdd vss vss gf180mcu_fd_sc_mcu7t5v0__nand2_1
X_231_ uart_frame\[0\] _099_ _117_ uart_frame\[1\] _153_ vdd vdd vss vss gf180mcu_fd_sc_mcu7t5v0__aoi22_1
Xinput1 custom_settings[0] net1 vdd vdd vss vss gf180mcu_fd_sc_mcu7t5v0__clkbuf_1
XFILLER_0_20_132 vdd vdd vss vss gf180mcu_fd_sc_mcu7t5v0__fill_1
X_214_ _120_ _140_ _141_ _020_ vdd vdd vss vss gf180mcu_fd_sc_mcu7t5v0__nor3_1
XFILLER_0_2_94 vdd vdd vss vss gf180mcu_fd_sc_mcu7t5v0__fillcap_8
XFILLER_0_7_137 vdd vdd vss vss gf180mcu_fd_sc_mcu7t5v0__fill_2
XFILLER_0_17_84 vdd vdd vss vss gf180mcu_fd_sc_mcu7t5v0__fill_1
XFILLER_0_17_51 vdd vdd vss vss gf180mcu_fd_sc_mcu7t5v0__fill_1
XFILLER_0_4_107 vdd vdd vss vss gf180mcu_fd_sc_mcu7t5v0__fillcap_32
XFILLER_0_22_205 vdd vdd vss vss gf180mcu_fd_sc_mcu7t5v0__fill_1
XPHY_EDGE_ROW_9_Right_9 vdd vss gf180mcu_fd_sc_mcu7t5v0__endcap
XFILLER_0_4_18 vdd vdd vss vss gf180mcu_fd_sc_mcu7t5v0__fillcap_8
XPHY_EDGE_ROW_18_Left_43 vdd vss gf180mcu_fd_sc_mcu7t5v0__endcap
XFILLER_0_14_96 vdd vdd vss vss gf180mcu_fd_sc_mcu7t5v0__fill_1
XFILLER_0_14_41 vdd vdd vss vss gf180mcu_fd_sc_mcu7t5v0__fill_1
X_376_ _027_ clknet_2_1__leaf_wb_clk_i char_pointer\[1\] vdd vdd vss vss gf180mcu_fd_sc_mcu7t5v0__dffq_1
XFILLER_0_18_127 vdd vdd vss vss gf180mcu_fd_sc_mcu7t5v0__fill_2
X_230_ _150_ _151_ _152_ _130_ _025_ vdd vdd vss vss gf180mcu_fd_sc_mcu7t5v0__oai211_1
XPHY_EDGE_ROW_3_Left_28 vdd vss gf180mcu_fd_sc_mcu7t5v0__endcap
XFILLER_0_5_72 vdd vdd vss vss gf180mcu_fd_sc_mcu7t5v0__fill_2
X_359_ _010_ clknet_2_0__leaf_wb_clk_i uart_frame\[6\] vdd vdd vss vss gf180mcu_fd_sc_mcu7t5v0__dffq_1
Xinput2 custom_settings[10] net2 vdd vdd vss vss gf180mcu_fd_sc_mcu7t5v0__clkbuf_1
XFILLER_0_14_174 vdd vdd vss vss gf180mcu_fd_sc_mcu7t5v0__fill_1
XTAP_TAPCELL_ROW_10_78 vdd vss gf180mcu_fd_sc_mcu7t5v0__filltie
X_213_ baud_delay\[7\] _139_ _141_ vdd vdd vss vss gf180mcu_fd_sc_mcu7t5v0__nor2_1
XTAP_TAPCELL_ROW_6_68 vdd vss gf180mcu_fd_sc_mcu7t5v0__filltie
XFILLER_0_22_85 vdd vdd vss vss gf180mcu_fd_sc_mcu7t5v0__fillcap_16
XFILLER_0_11_188 vdd vdd vss vss gf180mcu_fd_sc_mcu7t5v0__fill_2
XPHY_EDGE_ROW_6_Left_31 vdd vss gf180mcu_fd_sc_mcu7t5v0__endcap
XFILLER_0_6_171 vdd vdd vss vss gf180mcu_fd_sc_mcu7t5v0__fillcap_4
XFILLER_0_3_174 vdd vdd vss vss gf180mcu_fd_sc_mcu7t5v0__fillcap_8
XFILLER_0_0_188 vdd vdd vss vss gf180mcu_fd_sc_mcu7t5v0__fillcap_8
XFILLER_0_8_61 vdd vdd vss vss gf180mcu_fd_sc_mcu7t5v0__fill_1
XFILLER_0_5_203 vdd vdd vss vss gf180mcu_fd_sc_mcu7t5v0__fill_2
X_375_ _026_ clknet_2_1__leaf_wb_clk_i char_pointer\[0\] vdd vdd vss vss gf180mcu_fd_sc_mcu7t5v0__dffq_1
XFILLER_0_15_109 vdd vdd vss vss gf180mcu_fd_sc_mcu7t5v0__fillcap_4
X_358_ _009_ clknet_2_0__leaf_wb_clk_i uart_frame\[5\] vdd vdd vss vss gf180mcu_fd_sc_mcu7t5v0__dffq_1
XFILLER_0_1_2 vdd vdd vss vss gf180mcu_fd_sc_mcu7t5v0__fillcap_64
Xinput3 custom_settings[11] net3 vdd vdd vss vss gf180mcu_fd_sc_mcu7t5v0__clkbuf_1
XFILLER_0_23_131 vdd vdd vss vss gf180mcu_fd_sc_mcu7t5v0__fill_2
XPHY_EDGE_ROW_18_Right_18 vdd vss gf180mcu_fd_sc_mcu7t5v0__endcap