* NGSPICE file created from hellorld.ext - technology: gf180mcuD

* Black-box entry subcircuit for gf180mcu_fd_sc_mcu7t5v0__filltie abstract view
.subckt gf180mcu_fd_sc_mcu7t5v0__filltie VDD VSS
.ends

* Black-box entry subcircuit for gf180mcu_fd_sc_mcu7t5v0__fillcap_8 abstract view
.subckt gf180mcu_fd_sc_mcu7t5v0__fillcap_8 VDD VNW VPW VSS
.ends

* Black-box entry subcircuit for gf180mcu_fd_sc_mcu7t5v0__nand2_1 abstract view
.subckt gf180mcu_fd_sc_mcu7t5v0__nand2_1 A1 A2 ZN VDD VNW VPW VSS
.ends

* Black-box entry subcircuit for gf180mcu_fd_sc_mcu7t5v0__dffq_1 abstract view
.subckt gf180mcu_fd_sc_mcu7t5v0__dffq_1 D CLK Q VDD VNW VPW VSS
.ends

* Black-box entry subcircuit for gf180mcu_fd_sc_mcu7t5v0__fillcap_16 abstract view
.subckt gf180mcu_fd_sc_mcu7t5v0__fillcap_16 VDD VNW VPW VSS
.ends

* Black-box entry subcircuit for gf180mcu_fd_sc_mcu7t5v0__clkbuf_1 abstract view
.subckt gf180mcu_fd_sc_mcu7t5v0__clkbuf_1 I Z VDD VNW VPW VSS
.ends

* Black-box entry subcircuit for gf180mcu_fd_sc_mcu7t5v0__fillcap_4 abstract view
.subckt gf180mcu_fd_sc_mcu7t5v0__fillcap_4 VDD VNW VPW VSS
.ends

* Black-box entry subcircuit for gf180mcu_fd_sc_mcu7t5v0__xor2_1 abstract view
.subckt gf180mcu_fd_sc_mcu7t5v0__xor2_1 A1 A2 Z VDD VNW VPW VSS
.ends

* Black-box entry subcircuit for gf180mcu_fd_sc_mcu7t5v0__nor2_1 abstract view
.subckt gf180mcu_fd_sc_mcu7t5v0__nor2_1 A1 A2 ZN VDD VNW VPW VSS
.ends

* Black-box entry subcircuit for gf180mcu_fd_sc_mcu7t5v0__buf_1 abstract view
.subckt gf180mcu_fd_sc_mcu7t5v0__buf_1 I Z VDD VNW VPW VSS
.ends

* Black-box entry subcircuit for gf180mcu_fd_sc_mcu7t5v0__fill_2 abstract view
.subckt gf180mcu_fd_sc_mcu7t5v0__fill_2 VDD VNW VPW VSS
.ends

* Black-box entry subcircuit for gf180mcu_fd_sc_mcu7t5v0__fillcap_64 abstract view
.subckt gf180mcu_fd_sc_mcu7t5v0__fillcap_64 VDD VNW VPW VSS
.ends

* Black-box entry subcircuit for gf180mcu_fd_sc_mcu7t5v0__fillcap_32 abstract view
.subckt gf180mcu_fd_sc_mcu7t5v0__fillcap_32 VDD VNW VPW VSS
.ends

* Black-box entry subcircuit for gf180mcu_fd_sc_mcu7t5v0__nor4_4 abstract view
.subckt gf180mcu_fd_sc_mcu7t5v0__nor4_4 A1 A2 A3 A4 ZN VDD VNW VPW VSS
.ends

* Black-box entry subcircuit for gf180mcu_fd_sc_mcu7t5v0__nand3_1 abstract view
.subckt gf180mcu_fd_sc_mcu7t5v0__nand3_1 A1 A2 A3 ZN VDD VNW VPW VSS
.ends

* Black-box entry subcircuit for gf180mcu_fd_sc_mcu7t5v0__endcap abstract view
.subckt gf180mcu_fd_sc_mcu7t5v0__endcap VDD VSS
.ends

* Black-box entry subcircuit for gf180mcu_fd_sc_mcu7t5v0__fill_1 abstract view
.subckt gf180mcu_fd_sc_mcu7t5v0__fill_1 VDD VNW VPW VSS
.ends

* Black-box entry subcircuit for gf180mcu_fd_sc_mcu7t5v0__antenna abstract view
.subckt gf180mcu_fd_sc_mcu7t5v0__antenna I VDD VNW VPW VSS
.ends

* Black-box entry subcircuit for gf180mcu_fd_sc_mcu7t5v0__nand4_2 abstract view
.subckt gf180mcu_fd_sc_mcu7t5v0__nand4_2 A1 A2 A3 A4 ZN VDD VNW VPW VSS
.ends

* Black-box entry subcircuit for gf180mcu_fd_sc_mcu7t5v0__or2_1 abstract view
.subckt gf180mcu_fd_sc_mcu7t5v0__or2_1 A1 A2 Z VDD VNW VPW VSS
.ends

* Black-box entry subcircuit for gf180mcu_fd_sc_mcu7t5v0__clkinv_1 abstract view
.subckt gf180mcu_fd_sc_mcu7t5v0__clkinv_1 I ZN VDD VNW VPW VSS
.ends

* Black-box entry subcircuit for gf180mcu_fd_sc_mcu7t5v0__and3_1 abstract view
.subckt gf180mcu_fd_sc_mcu7t5v0__and3_1 A1 A2 A3 Z VDD VNW VPW VSS
.ends

* Black-box entry subcircuit for gf180mcu_fd_sc_mcu7t5v0__nor3_1 abstract view
.subckt gf180mcu_fd_sc_mcu7t5v0__nor3_1 A1 A2 A3 ZN VDD VNW VPW VSS
.ends

* Black-box entry subcircuit for gf180mcu_fd_sc_mcu7t5v0__mux2_2 abstract view
.subckt gf180mcu_fd_sc_mcu7t5v0__mux2_2 I0 I1 S Z VDD VNW VPW VSS
.ends

* Black-box entry subcircuit for gf180mcu_fd_sc_mcu7t5v0__buf_8 abstract view
.subckt gf180mcu_fd_sc_mcu7t5v0__buf_8 I Z VDD VNW VPW VSS
.ends

* Black-box entry subcircuit for gf180mcu_fd_sc_mcu7t5v0__aoi211_1 abstract view
.subckt gf180mcu_fd_sc_mcu7t5v0__aoi211_1 A1 A2 B C ZN VDD VNW VPW VSS
.ends

* Black-box entry subcircuit for gf180mcu_fd_sc_mcu7t5v0__aoi21_1 abstract view
.subckt gf180mcu_fd_sc_mcu7t5v0__aoi21_1 A1 A2 B ZN VDD VNW VPW VSS
.ends

* Black-box entry subcircuit for gf180mcu_fd_sc_mcu7t5v0__inv_1 abstract view
.subckt gf180mcu_fd_sc_mcu7t5v0__inv_1 I ZN VDD VNW VPW VSS
.ends

* Black-box entry subcircuit for gf180mcu_fd_sc_mcu7t5v0__and4_1 abstract view
.subckt gf180mcu_fd_sc_mcu7t5v0__and4_1 A1 A2 A3 A4 Z VDD VNW VPW VSS
.ends

* Black-box entry subcircuit for gf180mcu_fd_sc_mcu7t5v0__clkbuf_2 abstract view
.subckt gf180mcu_fd_sc_mcu7t5v0__clkbuf_2 I Z VDD VNW VPW VSS
.ends

* Black-box entry subcircuit for gf180mcu_fd_sc_mcu7t5v0__clkbuf_16 abstract view
.subckt gf180mcu_fd_sc_mcu7t5v0__clkbuf_16 I Z VDD VNW VPW VSS
.ends

* Black-box entry subcircuit for gf180mcu_fd_sc_mcu7t5v0__oai22_1 abstract view
.subckt gf180mcu_fd_sc_mcu7t5v0__oai22_1 A1 A2 B1 B2 ZN VDD VNW VPW VSS
.ends

* Black-box entry subcircuit for gf180mcu_fd_sc_mcu7t5v0__and4_2 abstract view
.subckt gf180mcu_fd_sc_mcu7t5v0__and4_2 A1 A2 A3 A4 Z VDD VNW VPW VSS
.ends

* Black-box entry subcircuit for gf180mcu_fd_sc_mcu7t5v0__nor4_2 abstract view
.subckt gf180mcu_fd_sc_mcu7t5v0__nor4_2 A1 A2 A3 A4 ZN VDD VNW VPW VSS
.ends

* Black-box entry subcircuit for gf180mcu_fd_sc_mcu7t5v0__and2_1 abstract view
.subckt gf180mcu_fd_sc_mcu7t5v0__and2_1 A1 A2 Z VDD VNW VPW VSS
.ends

* Black-box entry subcircuit for gf180mcu_fd_sc_mcu7t5v0__aoi22_1 abstract view
.subckt gf180mcu_fd_sc_mcu7t5v0__aoi22_1 A1 A2 B1 B2 ZN VDD VNW VPW VSS
.ends

* Black-box entry subcircuit for gf180mcu_fd_sc_mcu7t5v0__xnor2_1 abstract view
.subckt gf180mcu_fd_sc_mcu7t5v0__xnor2_1 A1 A2 ZN VDD VNW VPW VSS
.ends

* Black-box entry subcircuit for gf180mcu_fd_sc_mcu7t5v0__oai31_1 abstract view
.subckt gf180mcu_fd_sc_mcu7t5v0__oai31_1 A1 A2 A3 B ZN VDD VNW VPW VSS
.ends

* Black-box entry subcircuit for gf180mcu_fd_sc_mcu7t5v0__oai211_1 abstract view
.subckt gf180mcu_fd_sc_mcu7t5v0__oai211_1 A1 A2 B C ZN VDD VNW VPW VSS
.ends

* Black-box entry subcircuit for gf180mcu_fd_sc_mcu7t5v0__nor4_1 abstract view
.subckt gf180mcu_fd_sc_mcu7t5v0__nor4_1 A1 A2 A3 A4 ZN VDD VNW VPW VSS
.ends

* Black-box entry subcircuit for gf180mcu_fd_sc_mcu7t5v0__oai21_1 abstract view
.subckt gf180mcu_fd_sc_mcu7t5v0__oai21_1 A1 A2 B ZN VDD VNW VPW VSS
.ends

* Black-box entry subcircuit for gf180mcu_fd_sc_mcu7t5v0__buf_2 abstract view
.subckt gf180mcu_fd_sc_mcu7t5v0__buf_2 I Z VDD VNW VPW VSS
.ends

* Black-box entry subcircuit for gf180mcu_fd_sc_mcu7t5v0__or3_1 abstract view
.subckt gf180mcu_fd_sc_mcu7t5v0__or3_1 A1 A2 A3 Z VDD VNW VPW VSS
.ends

.subckt hellorld custom_settings[0] custom_settings[10] custom_settings[11] custom_settings[1]
+ custom_settings[2] custom_settings[3] custom_settings[4] custom_settings[5] custom_settings[6]
+ custom_settings[7] custom_settings[8] custom_settings[9] io_out rst_n vdd vss wb_clk_i
XTAP_TAPCELL_ROW_24_117 vdd vss gf180mcu_fd_sc_mcu7t5v0__filltie
XFILLER_0_23_18 vdd vdd vss vss gf180mcu_fd_sc_mcu7t5v0__fillcap_8
X_294_ _054_ _055_ _056_ vdd vdd vss vss gf180mcu_fd_sc_mcu7t5v0__nand2_1
X_363_ _014_ clknet_2_3__leaf_wb_clk_i baud_delay\[8\] vdd vdd vss vss gf180mcu_fd_sc_mcu7t5v0__dffq_1
XFILLER_0_1_174 vdd vdd vss vss gf180mcu_fd_sc_mcu7t5v0__fillcap_16
X_346_ _096_ _097_ vdd vdd vss vss gf180mcu_fd_sc_mcu7t5v0__clkbuf_1
XFILLER_0_24_94 vdd vdd vss vss gf180mcu_fd_sc_mcu7t5v0__fillcap_4
X_277_ net2 baud_delay\[10\] _039_ vdd vdd vss vss gf180mcu_fd_sc_mcu7t5v0__xor2_1
X_200_ baud_delay\[8\] _118_ _120_ vdd vdd vss vss gf180mcu_fd_sc_mcu7t5v0__nor2_1
X_329_ _067_ _085_ vdd vdd vss vss gf180mcu_fd_sc_mcu7t5v0__buf_1
XFILLER_0_10_41 vdd vdd vss vss gf180mcu_fd_sc_mcu7t5v0__fill_2
XFILLER_0_19_158 vdd vdd vss vss gf180mcu_fd_sc_mcu7t5v0__fill_2
XTAP_TAPCELL_ROW_5_67 vdd vss gf180mcu_fd_sc_mcu7t5v0__filltie
XFILLER_0_1_72 vdd vdd vss vss gf180mcu_fd_sc_mcu7t5v0__fillcap_64
XFILLER_0_8_147 vdd vdd vss vss gf180mcu_fd_sc_mcu7t5v0__fill_2
XTAP_TAPCELL_ROW_24_118 vdd vss gf180mcu_fd_sc_mcu7t5v0__filltie
XFILLER_0_23_204 vdd vdd vss vss gf180mcu_fd_sc_mcu7t5v0__fill_2
X_293_ char_pointer\[3\] _050_ _055_ vdd vdd vss vss gf180mcu_fd_sc_mcu7t5v0__nand2_1
X_362_ _013_ clknet_2_3__leaf_wb_clk_i baud_delay\[7\] vdd vdd vss vss gf180mcu_fd_sc_mcu7t5v0__dffq_1
XFILLER_0_1_142 vdd vdd vss vss gf180mcu_fd_sc_mcu7t5v0__fillcap_32
XFILLER_0_13_63 vdd vdd vss vss gf180mcu_fd_sc_mcu7t5v0__fillcap_4
X_276_ _173_ _174_ _175_ _176_ _038_ vdd vdd vss vss gf180mcu_fd_sc_mcu7t5v0__nor4_4
X_345_ _172_ _038_ _043_ _096_ vdd vdd vss vss gf180mcu_fd_sc_mcu7t5v0__nand3_1
XPHY_EDGE_ROW_21_Right_21 vdd vss gf180mcu_fd_sc_mcu7t5v0__endcap
XPHY_EDGE_ROW_12_Right_12 vdd vss gf180mcu_fd_sc_mcu7t5v0__endcap
X_259_ _097_ _161_ _162_ vdd vdd vss vss gf180mcu_fd_sc_mcu7t5v0__nor2_1
X_328_ _084_ _001_ vdd vdd vss vss gf180mcu_fd_sc_mcu7t5v0__clkbuf_1
XFILLER_0_19_40 vdd vdd vss vss gf180mcu_fd_sc_mcu7t5v0__fill_1
XTAP_TAPCELL_ROW_18_98 vdd vss gf180mcu_fd_sc_mcu7t5v0__filltie
XFILLER_0_16_107 vdd vdd vss vss gf180mcu_fd_sc_mcu7t5v0__fillcap_8
XPHY_EDGE_ROW_12_Left_37 vdd vss gf180mcu_fd_sc_mcu7t5v0__endcap
XFILLER_0_16_85 vdd vdd vss vss gf180mcu_fd_sc_mcu7t5v0__fill_2
XANTENNA_input11_I custom_settings[8] vdd vdd vss vss gf180mcu_fd_sc_mcu7t5v0__antenna
XPHY_EDGE_ROW_6_Right_6 vdd vss gf180mcu_fd_sc_mcu7t5v0__endcap
XFILLER_0_8_115 vdd vdd vss vss gf180mcu_fd_sc_mcu7t5v0__fillcap_4
XTAP_TAPCELL_ROW_2_58 vdd vss gf180mcu_fd_sc_mcu7t5v0__filltie
XFILLER_0_9_2 vdd vdd vss vss gf180mcu_fd_sc_mcu7t5v0__fillcap_4
XANTENNA_input3_I custom_settings[11] vdd vdd vss vss gf180mcu_fd_sc_mcu7t5v0__antenna
X_292_ char_pointer\[3\] _052_ char_pointer\[1\] _053_ _054_ vdd vdd vss vss gf180mcu_fd_sc_mcu7t5v0__nand4_2
X_361_ _012_ clknet_2_3__leaf_wb_clk_i baud_delay\[6\] vdd vdd vss vss gf180mcu_fd_sc_mcu7t5v0__dffq_1
XPHY_EDGE_ROW_15_Left_40 vdd vss gf180mcu_fd_sc_mcu7t5v0__endcap
XFILLER_0_13_86 vdd vdd vss vss gf180mcu_fd_sc_mcu7t5v0__fill_2
XPHY_EDGE_ROW_0_Left_25 vdd vss gf180mcu_fd_sc_mcu7t5v0__endcap
X_344_ baud_delay\[0\] _095_ vdd vdd vss vss gf180mcu_fd_sc_mcu7t5v0__buf_1
X_275_ net8 baud_delay\[5\] _176_ vdd vdd vss vss gf180mcu_fd_sc_mcu7t5v0__xor2_1
XFILLER_0_4_62 vdd vdd vss vss gf180mcu_fd_sc_mcu7t5v0__fill_2
XFILLER_0_19_138 vdd vdd vss vss gf180mcu_fd_sc_mcu7t5v0__fill_2
X_258_ frame_counter\[1\] frame_counter\[0\] _161_ vdd vdd vss vss gf180mcu_fd_sc_mcu7t5v0__nand2_1
XTAP_TAPCELL_ROW_18_99 vdd vss gf180mcu_fd_sc_mcu7t5v0__filltie
XFILLER_0_3_205 vdd vdd vss vss gf180mcu_fd_sc_mcu7t5v0__fill_1
X_327_ _079_ _083_ _084_ vdd vdd vss vss gf180mcu_fd_sc_mcu7t5v0__or2_1
X_189_ _112_ _010_ vdd vdd vss vss gf180mcu_fd_sc_mcu7t5v0__clkbuf_1
XFILLER_0_18_171 vdd vdd vss vss gf180mcu_fd_sc_mcu7t5v0__fillcap_4
XFILLER_0_21_188 vdd vdd vss vss gf180mcu_fd_sc_mcu7t5v0__fill_2
XFILLER_0_21_155 vdd vdd vss vss gf180mcu_fd_sc_mcu7t5v0__fillcap_4
XFILLER_0_8_127 vdd vdd vss vss gf180mcu_fd_sc_mcu7t5v0__fillcap_16
XFILLER_0_12_144 vdd vdd vss vss gf180mcu_fd_sc_mcu7t5v0__fillcap_8
XFILLER_0_12_177 vdd vdd vss vss gf180mcu_fd_sc_mcu7t5v0__fill_1
XFILLER_0_12_199 vdd vdd vss vss gf180mcu_fd_sc_mcu7t5v0__fill_1
XTAP_TAPCELL_ROW_2_59 vdd vss gf180mcu_fd_sc_mcu7t5v0__filltie
XFILLER_0_7_171 vdd vdd vss vss gf180mcu_fd_sc_mcu7t5v0__fillcap_4
X_291_ char_pointer\[0\] _053_ vdd vdd vss vss gf180mcu_fd_sc_mcu7t5v0__clkinv_1
XFILLER_0_4_174 vdd vdd vss vss gf180mcu_fd_sc_mcu7t5v0__fill_1
XFILLER_0_7_95 vdd vdd vss vss gf180mcu_fd_sc_mcu7t5v0__fillcap_4
X_360_ _011_ clknet_2_2__leaf_wb_clk_i baud_delay\[5\] vdd vdd vss vss gf180mcu_fd_sc_mcu7t5v0__dffq_1
X_274_ baud_delay\[0\] net1 _175_ vdd vdd vss vss gf180mcu_fd_sc_mcu7t5v0__xor2_1
X_343_ _094_ _005_ vdd vdd vss vss gf180mcu_fd_sc_mcu7t5v0__clkbuf_1
XFILLER_0_24_86 vdd vdd vss vss gf180mcu_fd_sc_mcu7t5v0__fillcap_8
XFILLER_0_4_30 vdd vdd vss vss gf180mcu_fd_sc_mcu7t5v0__fillcap_4
X_257_ frame_counter\[2\] _160_ vdd vdd vss vss gf180mcu_fd_sc_mcu7t5v0__clkbuf_1
X_188_ _108_ _109_ _111_ _112_ vdd vdd vss vss gf180mcu_fd_sc_mcu7t5v0__and3_1
X_326_ _030_ _081_ _028_ _083_ vdd vdd vss vss gf180mcu_fd_sc_mcu7t5v0__nor3_1
XFILLER_0_21_10 vdd vdd vss vss gf180mcu_fd_sc_mcu7t5v0__fillcap_4
X_309_ _068_ _065_ _063_ _066_ _069_ vdd vdd vss vss gf180mcu_fd_sc_mcu7t5v0__nand4_2
XANTENNA__295__A1 _047_ vdd vdd vss vss gf180mcu_fd_sc_mcu7t5v0__antenna
XFILLER_0_5_109 vdd vdd vss vss gf180mcu_fd_sc_mcu7t5v0__fill_2
X_290_ char_pointer\[2\] _052_ vdd vdd vss vss gf180mcu_fd_sc_mcu7t5v0__clkinv_1
X_273_ net3 baud_delay\[11\] _174_ vdd vdd vss vss gf180mcu_fd_sc_mcu7t5v0__xor2_1
X_342_ _062_ _088_ _094_ vdd vdd vss vss gf180mcu_fd_sc_mcu7t5v0__or2_1
XFILLER_0_24_98 vdd vdd vss vss gf180mcu_fd_sc_mcu7t5v0__fill_2
XFILLER_0_4_97 vdd vdd vss vss gf180mcu_fd_sc_mcu7t5v0__fillcap_8
XFILLER_0_4_53 vdd vdd vss vss gf180mcu_fd_sc_mcu7t5v0__fill_2
XFILLER_0_19_10 vdd vdd vss vss gf180mcu_fd_sc_mcu7t5v0__fillcap_4
X_256_ _108_ _159_ _034_ vdd vdd vss vss gf180mcu_fd_sc_mcu7t5v0__nand2_1
X_325_ _082_ _028_ vdd vdd vss vss gf180mcu_fd_sc_mcu7t5v0__clkbuf_1
XFILLER_0_10_34 vdd vdd vss vss gf180mcu_fd_sc_mcu7t5v0__fill_1
X_187_ _110_ _107_ _111_ vdd vdd vss vss gf180mcu_fd_sc_mcu7t5v0__xor2_1
XFILLER_0_24_154 vdd vdd vss vss gf180mcu_fd_sc_mcu7t5v0__fillcap_8
XFILLER_0_24_110 vdd vdd vss vss gf180mcu_fd_sc_mcu7t5v0__fillcap_16
X_308_ _060_ _068_ vdd vdd vss vss gf180mcu_fd_sc_mcu7t5v0__buf_1
X_239_ _148_ _024_ vdd vdd vss vss gf180mcu_fd_sc_mcu7t5v0__clkbuf_1
XTAP_TAPCELL_ROW_10_80 vdd vss gf180mcu_fd_sc_mcu7t5v0__filltie
XFILLER_0_16_99 vdd vdd vss vss gf180mcu_fd_sc_mcu7t5v0__fill_2
XFILLER_0_16_33 vdd vdd vss vss gf180mcu_fd_sc_mcu7t5v0__fill_2
XTAP_TAPCELL_ROW_6_70 vdd vss gf180mcu_fd_sc_mcu7t5v0__filltie
XFILLER_0_8_107 vdd vdd vss vss gf180mcu_fd_sc_mcu7t5v0__fillcap_8
XFILLER_0_12_102 vdd vdd vss vss gf180mcu_fd_sc_mcu7t5v0__fill_2
XFILLER_0_18_2 vdd vdd vss vss gf180mcu_fd_sc_mcu7t5v0__fillcap_4
XPHY_EDGE_ROW_19_Right_19 vdd vss gf180mcu_fd_sc_mcu7t5v0__endcap
XFILLER_0_17_205 vdd vdd vss vss gf180mcu_fd_sc_mcu7t5v0__fill_1
XFILLER_0_4_143 vdd vdd vss vss gf180mcu_fd_sc_mcu7t5v0__fill_2
XTAP_TAPCELL_ROW_23_111 vdd vss gf180mcu_fd_sc_mcu7t5v0__filltie
XFILLER_0_7_2 vdd vdd vss vss gf180mcu_fd_sc_mcu7t5v0__fillcap_16
XPHY_EDGE_ROW_19_Left_44 vdd vss gf180mcu_fd_sc_mcu7t5v0__endcap
XANTENNA_input1_I custom_settings[0] vdd vdd vss vss gf180mcu_fd_sc_mcu7t5v0__antenna
XFILLER_0_13_78 vdd vdd vss vss gf180mcu_fd_sc_mcu7t5v0__fillcap_8
XFILLER_0_13_67 vdd vdd vss vss gf180mcu_fd_sc_mcu7t5v0__fill_2
XTAP_TAPCELL_ROW_20_103 vdd vss gf180mcu_fd_sc_mcu7t5v0__filltie
X_272_ net4 baud_delay\[1\] _173_ vdd vdd vss vss gf180mcu_fd_sc_mcu7t5v0__xor2_1
X_341_ _093_ _004_ vdd vdd vss vss gf180mcu_fd_sc_mcu7t5v0__clkbuf_1
XFILLER_0_6_205 vdd vdd vss vss gf180mcu_fd_sc_mcu7t5v0__fill_1
XFILLER_0_4_87 vdd vdd vss vss gf180mcu_fd_sc_mcu7t5v0__fillcap_4
XPHY_EDGE_ROW_4_Left_29 vdd vss gf180mcu_fd_sc_mcu7t5v0__endcap
X_324_ _075_ _082_ vdd vdd vss vss gf180mcu_fd_sc_mcu7t5v0__clkinv_1
X_255_ _045_ _158_ _159_ vdd vdd vss vss gf180mcu_fd_sc_mcu7t5v0__xor2_1
X_186_ baud_delay\[4\] _110_ vdd vdd vss vss gf180mcu_fd_sc_mcu7t5v0__buf_1
XFILLER_0_19_99 vdd vdd vss vss gf180mcu_fd_sc_mcu7t5v0__fill_1
XTAP_TAPCELL_ROW_0_50 vdd vss gf180mcu_fd_sc_mcu7t5v0__filltie
X_307_ _067_ _027_ vdd vdd vss vss gf180mcu_fd_sc_mcu7t5v0__clkinv_1
X_238_ _147_ uart_frame\[7\] _135_ _148_ vdd vdd vss vss gf180mcu_fd_sc_mcu7t5v0__mux2_2
XFILLER_0_15_100 vdd vdd vss vss gf180mcu_fd_sc_mcu7t5v0__fill_2
XFILLER_0_1_66 vdd vdd vss vss gf180mcu_fd_sc_mcu7t5v0__fillcap_4
XFILLER_0_21_147 vdd vdd vss vss gf180mcu_fd_sc_mcu7t5v0__fillcap_8
XPHY_EDGE_ROW_7_Left_32 vdd vss gf180mcu_fd_sc_mcu7t5v0__endcap
Xoutput14 net14 io_out vdd vdd vss vss gf180mcu_fd_sc_mcu7t5v0__buf_8
XFILLER_0_7_87 vdd vdd vss vss gf180mcu_fd_sc_mcu7t5v0__fillcap_8
XTAP_TAPCELL_ROW_23_112 vdd vss gf180mcu_fd_sc_mcu7t5v0__filltie
XTAP_TAPCELL_ROW_3_61 vdd vss gf180mcu_fd_sc_mcu7t5v0__filltie
XFILLER_0_1_136 vdd vdd vss vss gf180mcu_fd_sc_mcu7t5v0__fillcap_4
XTAP_TAPCELL_ROW_20_104 vdd vss gf180mcu_fd_sc_mcu7t5v0__filltie
XPHY_EDGE_ROW_20_Left_45 vdd vss gf180mcu_fd_sc_mcu7t5v0__endcap
X_271_ _168_ _169_ _170_ _171_ _172_ vdd vdd vss vss gf180mcu_fd_sc_mcu7t5v0__nor4_4
X_340_ _030_ _092_ _093_ vdd vdd vss vss gf180mcu_fd_sc_mcu7t5v0__xor2_1
XFILLER_0_4_55 vdd vdd vss vss gf180mcu_fd_sc_mcu7t5v0__fill_1
XFILLER_0_4_22 vdd vdd vss vss gf180mcu_fd_sc_mcu7t5v0__fill_2
XFILLER_0_10_201 vdd vdd vss vss gf180mcu_fd_sc_mcu7t5v0__fill_2
X_323_ _064_ _081_ vdd vdd vss vss gf180mcu_fd_sc_mcu7t5v0__buf_1
X_185_ _096_ _109_ vdd vdd vss vss gf180mcu_fd_sc_mcu7t5v0__clkbuf_1
X_254_ _156_ _109_ _158_ _167_ _033_ vdd vdd vss vss gf180mcu_fd_sc_mcu7t5v0__aoi211_1
XFILLER_0_19_56 vdd vdd vss vss gf180mcu_fd_sc_mcu7t5v0__fill_2
XTAP_TAPCELL_ROW_0_51 vdd vss gf180mcu_fd_sc_mcu7t5v0__filltie
XANTENNA_clkbuf_0_wb_clk_i_I wb_clk_i vdd vdd vss vss gf180mcu_fd_sc_mcu7t5v0__antenna
XFILLER_0_24_134 vdd vdd vss vss gf180mcu_fd_sc_mcu7t5v0__fill_2
XFILLER_0_21_79 vdd vdd vss vss gf180mcu_fd_sc_mcu7t5v0__fillcap_32
XFILLER_0_21_46 vdd vdd vss vss gf180mcu_fd_sc_mcu7t5v0__fill_2
X_306_ _060_ _065_ _066_ _067_ vdd vdd vss vss gf180mcu_fd_sc_mcu7t5v0__nand3_1
X_237_ uart_frame\[8\] char_at\[6\] _128_ _147_ vdd vdd vss vss gf180mcu_fd_sc_mcu7t5v0__mux2_2
XFILLER_0_21_159 vdd vdd vss vss gf180mcu_fd_sc_mcu7t5v0__fill_2
XFILLER_0_21_126 vdd vdd vss vss gf180mcu_fd_sc_mcu7t5v0__fillcap_4
XFILLER_0_16_46 vdd vdd vss vss gf180mcu_fd_sc_mcu7t5v0__fillcap_4
XFILLER_0_12_104 vdd vdd vss vss gf180mcu_fd_sc_mcu7t5v0__fill_1
XPHY_EDGE_ROW_1_Right_1 vdd vss gf180mcu_fd_sc_mcu7t5v0__endcap
XFILLER_0_7_186 vdd vdd vss vss gf180mcu_fd_sc_mcu7t5v0__fillcap_4
XFILLER_0_23_2 vdd vdd vss vss gf180mcu_fd_sc_mcu7t5v0__fillcap_16
XFILLER_0_7_99 vdd vdd vss vss gf180mcu_fd_sc_mcu7t5v0__fill_2
XTAP_TAPCELL_ROW_3_62 vdd vss gf180mcu_fd_sc_mcu7t5v0__filltie
XFILLER_0_13_47 vdd vdd vss vss gf180mcu_fd_sc_mcu7t5v0__fillcap_16
XFILLER_0_13_69 vdd vdd vss vss gf180mcu_fd_sc_mcu7t5v0__fill_1
XTAP_TAPCELL_ROW_20_105 vdd vss gf180mcu_fd_sc_mcu7t5v0__filltie
X_270_ net9 baud_delay\[6\] _171_ vdd vdd vss vss gf180mcu_fd_sc_mcu7t5v0__xor2_1
XFILLER_0_4_34 vdd vdd vss vss gf180mcu_fd_sc_mcu7t5v0__fill_1
X_322_ _080_ _030_ vdd vdd vss vss gf180mcu_fd_sc_mcu7t5v0__buf_1
X_184_ _068_ _108_ vdd vdd vss vss gf180mcu_fd_sc_mcu7t5v0__buf_1
X_253_ _097_ _157_ _158_ vdd vdd vss vss gf180mcu_fd_sc_mcu7t5v0__nor2_1
XTAP_TAPCELL_ROW_0_52 vdd vss gf180mcu_fd_sc_mcu7t5v0__filltie
XFILLER_0_10_37 vdd vdd vss vss gf180mcu_fd_sc_mcu7t5v0__fillcap_4
XFILLER_0_21_69 vdd vdd vss vss gf180mcu_fd_sc_mcu7t5v0__fill_1
XFILLER_0_21_14 vdd vdd vss vss gf180mcu_fd_sc_mcu7t5v0__fill_2
X_305_ char_pointer\[0\] _047_ _066_ vdd vdd vss vss gf180mcu_fd_sc_mcu7t5v0__xor2_1
X_236_ _146_ _023_ vdd vdd vss vss gf180mcu_fd_sc_mcu7t5v0__clkbuf_1
XFILLER_0_15_102 vdd vdd vss vss gf180mcu_fd_sc_mcu7t5v0__fill_1
XFILLER_0_20_171 vdd vdd vss vss gf180mcu_fd_sc_mcu7t5v0__fillcap_4
X_219_ uart_frame\[3\] char_at\[1\] _129_ _134_ vdd vdd vss vss gf180mcu_fd_sc_mcu7t5v0__mux2_2
XPHY_EDGE_ROW_24_Right_24 vdd vss gf180mcu_fd_sc_mcu7t5v0__endcap
XFILLER_0_16_2 vdd vdd vss vss gf180mcu_fd_sc_mcu7t5v0__fillcap_4
XPHY_EDGE_ROW_15_Right_15 vdd vss gf180mcu_fd_sc_mcu7t5v0__endcap
XTAP_TAPCELL_ROW_16_93 vdd vss gf180mcu_fd_sc_mcu7t5v0__filltie
XFILLER_0_9_205 vdd vdd vss vss gf180mcu_fd_sc_mcu7t5v0__fill_1
XFILLER_0_5_2 vdd vdd vss vss gf180mcu_fd_sc_mcu7t5v0__fillcap_4
XFILLER_0_24_36 vdd vdd vss vss gf180mcu_fd_sc_mcu7t5v0__fillcap_32
XFILLER_0_4_79 vdd vdd vss vss gf180mcu_fd_sc_mcu7t5v0__fillcap_8
XFILLER_0_10_203 vdd vdd vss vss gf180mcu_fd_sc_mcu7t5v0__fill_1
XFILLER_0_19_58 vdd vdd vss vss gf180mcu_fd_sc_mcu7t5v0__fill_1
XFILLER_0_19_14 vdd vdd vss vss gf180mcu_fd_sc_mcu7t5v0__fill_2
X_321_ _058_ _080_ vdd vdd vss vss gf180mcu_fd_sc_mcu7t5v0__clkinv_1
XTAP_TAPCELL_ROW_0_53 vdd vss gf180mcu_fd_sc_mcu7t5v0__filltie
X_183_ _102_ _105_ _107_ _009_ vdd vdd vss vss gf180mcu_fd_sc_mcu7t5v0__nor3_1
X_252_ frame_counter\[0\] _128_ _157_ vdd vdd vss vss gf180mcu_fd_sc_mcu7t5v0__nor2_1
XFILLER_0_18_111 vdd vdd vss vss gf180mcu_fd_sc_mcu7t5v0__fill_2
X_304_ _054_ _065_ vdd vdd vss vss gf180mcu_fd_sc_mcu7t5v0__buf_1
X_235_ _145_ uart_frame\[6\] _135_ _146_ vdd vdd vss vss gf180mcu_fd_sc_mcu7t5v0__mux2_2
XFILLER_0_15_158 vdd vdd vss vss gf180mcu_fd_sc_mcu7t5v0__fill_2
XFILLER_0_16_37 vdd vdd vss vss gf180mcu_fd_sc_mcu7t5v0__fill_2
X_218_ _133_ _018_ vdd vdd vss vss gf180mcu_fd_sc_mcu7t5v0__clkbuf_1
XFILLER_0_11_150 vdd vdd vss vss gf180mcu_fd_sc_mcu7t5v0__fill_1
XTAP_TAPCELL_ROW_16_94 vdd vss gf180mcu_fd_sc_mcu7t5v0__filltie
XFILLER_0_0_172 vdd vdd vss vss gf180mcu_fd_sc_mcu7t5v0__fillcap_16
XPHY_EDGE_ROW_24_Left_49 vdd vss gf180mcu_fd_sc_mcu7t5v0__endcap
XTAP_TAPCELL_ROW_0_54 vdd vss gf180mcu_fd_sc_mcu7t5v0__filltie
X_182_ _106_ _107_ vdd vdd vss vss gf180mcu_fd_sc_mcu7t5v0__buf_1
X_320_ _059_ _077_ _079_ _000_ vdd vdd vss vss gf180mcu_fd_sc_mcu7t5v0__aoi21_1
X_251_ frame_counter\[0\] _156_ vdd vdd vss vss gf180mcu_fd_sc_mcu7t5v0__clkinv_1
XFILLER_0_24_126 vdd vdd vss vss gf180mcu_fd_sc_mcu7t5v0__fillcap_8
XFILLER_0_21_16 vdd vdd vss vss gf180mcu_fd_sc_mcu7t5v0__fill_1
X_303_ _064_ _029_ vdd vdd vss vss gf180mcu_fd_sc_mcu7t5v0__inv_1
X_234_ uart_frame\[7\] char_at\[5\] _138_ _145_ vdd vdd vss vss gf180mcu_fd_sc_mcu7t5v0__mux2_2
XFILLER_0_15_137 vdd vdd vss vss gf180mcu_fd_sc_mcu7t5v0__fill_2
X_217_ _130_ uart_frame\[1\] _132_ _133_ vdd vdd vss vss gf180mcu_fd_sc_mcu7t5v0__mux2_2
XPHY_EDGE_ROW_11_Left_36 vdd vss gf180mcu_fd_sc_mcu7t5v0__endcap
XTAP_TAPCELL_ROW_16_95 vdd vss gf180mcu_fd_sc_mcu7t5v0__filltie
XFILLER_0_3_170 vdd vdd vss vss gf180mcu_fd_sc_mcu7t5v0__fill_1
XPHY_EDGE_ROW_5_Right_5 vdd vss gf180mcu_fd_sc_mcu7t5v0__endcap
XFILLER_0_21_2 vdd vdd vss vss gf180mcu_fd_sc_mcu7t5v0__fillcap_8
XFILLER_0_4_37 vdd vdd vss vss gf180mcu_fd_sc_mcu7t5v0__fillcap_16
XFILLER_0_19_16 vdd vdd vss vss gf180mcu_fd_sc_mcu7t5v0__fill_1
XTAP_TAPCELL_ROW_0_55 vdd vss gf180mcu_fd_sc_mcu7t5v0__filltie
X_250_ _155_ _032_ vdd vdd vss vss gf180mcu_fd_sc_mcu7t5v0__clkinv_1
X_181_ baud_delay\[0\] _100_ baud_delay\[2\] baud_delay\[3\] _106_ vdd vdd vss vss
+ gf180mcu_fd_sc_mcu7t5v0__and4_1
X_379_ _025_ clknet_2_2__leaf_wb_clk_i uart_frame\[9\] vdd vdd vss vss gf180mcu_fd_sc_mcu7t5v0__dffq_1
XFILLER_0_24_138 vdd vdd vss vss gf180mcu_fd_sc_mcu7t5v0__fillcap_16
X_302_ _060_ _063_ _064_ vdd vdd vss vss gf180mcu_fd_sc_mcu7t5v0__nand2_1
X_233_ _144_ _022_ vdd vdd vss vss gf180mcu_fd_sc_mcu7t5v0__clkbuf_1
XFILLER_0_21_119 vdd vdd vss vss gf180mcu_fd_sc_mcu7t5v0__fill_1
X_216_ _131_ _132_ vdd vdd vss vss gf180mcu_fd_sc_mcu7t5v0__buf_1
XFILLER_0_17_82 vdd vdd vss vss gf180mcu_fd_sc_mcu7t5v0__fill_2
XPHY_EDGE_ROW_20_Right_20 vdd vss gf180mcu_fd_sc_mcu7t5v0__endcap
XPHY_EDGE_ROW_11_Right_11 vdd vss gf180mcu_fd_sc_mcu7t5v0__endcap
XFILLER_0_14_2 vdd vdd vss vss gf180mcu_fd_sc_mcu7t5v0__fillcap_4
X_180_ baud_delay\[3\] _103_ _105_ vdd vdd vss vss gf180mcu_fd_sc_mcu7t5v0__nor2_1
XTAP_TAPCELL_ROW_13_86 vdd vss gf180mcu_fd_sc_mcu7t5v0__filltie
X_378_ _024_ clknet_2_2__leaf_wb_clk_i uart_frame\[7\] vdd vdd vss vss gf180mcu_fd_sc_mcu7t5v0__dffq_1
XFILLER_0_3_2 vdd vdd vss vss gf180mcu_fd_sc_mcu7t5v0__fillcap_8
XTAP_TAPCELL_ROW_9_76 vdd vss gf180mcu_fd_sc_mcu7t5v0__filltie
X_301_ char_pointer\[2\] _062_ _047_ _063_ vdd vdd vss vss gf180mcu_fd_sc_mcu7t5v0__mux2_2
X_232_ _143_ uart_frame\[5\] _136_ _144_ vdd vdd vss vss gf180mcu_fd_sc_mcu7t5v0__mux2_2
XFILLER_0_15_139 vdd vdd vss vss gf180mcu_fd_sc_mcu7t5v0__fill_1
X_215_ _167_ _096_ _131_ vdd vdd vss vss gf180mcu_fd_sc_mcu7t5v0__or2_1
XFILLER_0_11_120 vdd vdd vss vss gf180mcu_fd_sc_mcu7t5v0__fill_2
XFILLER_0_4_139 vdd vdd vss vss gf180mcu_fd_sc_mcu7t5v0__fillcap_4
XFILLER_0_16_6 vdd vdd vss vss gf180mcu_fd_sc_mcu7t5v0__fill_2
XANTENNA_input8_I custom_settings[5] vdd vdd vss vss gf180mcu_fd_sc_mcu7t5v0__antenna
XTAP_TAPCELL_ROW_13_87 vdd vss gf180mcu_fd_sc_mcu7t5v0__filltie
X_377_ _023_ clknet_2_0__leaf_wb_clk_i uart_frame\[6\] vdd vdd vss vss gf180mcu_fd_sc_mcu7t5v0__dffq_1
XTAP_TAPCELL_ROW_9_77 vdd vss gf180mcu_fd_sc_mcu7t5v0__filltie
XFILLER_0_18_126 vdd vdd vss vss gf180mcu_fd_sc_mcu7t5v0__fill_2
X_300_ _052_ _061_ _062_ vdd vdd vss vss gf180mcu_fd_sc_mcu7t5v0__xor2_1
X_231_ uart_frame\[6\] char_at\[4\] _138_ _143_ vdd vdd vss vss gf180mcu_fd_sc_mcu7t5v0__mux2_2
Xinput1 custom_settings[0] net1 vdd vdd vss vss gf180mcu_fd_sc_mcu7t5v0__clkbuf_1
X_214_ uart_frame\[2\] char_at\[0\] _129_ _130_ vdd vdd vss vss gf180mcu_fd_sc_mcu7t5v0__mux2_2
XFILLER_0_17_62 vdd vdd vss vss gf180mcu_fd_sc_mcu7t5v0__fill_2
XFILLER_0_17_51 vdd vdd vss vss gf180mcu_fd_sc_mcu7t5v0__fill_1
XFILLER_0_4_107 vdd vdd vss vss gf180mcu_fd_sc_mcu7t5v0__fillcap_32
XPHY_EDGE_ROW_9_Right_9 vdd vss gf180mcu_fd_sc_mcu7t5v0__endcap
XFILLER_0_4_18 vdd vdd vss vss gf180mcu_fd_sc_mcu7t5v0__fillcap_4
XPHY_EDGE_ROW_18_Left_43 vdd vss gf180mcu_fd_sc_mcu7t5v0__endcap
XFILLER_0_14_41 vdd vdd vss vss gf180mcu_fd_sc_mcu7t5v0__fill_1
X_376_ _022_ clknet_2_0__leaf_wb_clk_i uart_frame\[5\] vdd vdd vss vss gf180mcu_fd_sc_mcu7t5v0__dffq_1
XFILLER_0_2_205 vdd vdd vss vss gf180mcu_fd_sc_mcu7t5v0__fill_1
XPHY_EDGE_ROW_3_Left_28 vdd vss gf180mcu_fd_sc_mcu7t5v0__endcap
X_230_ _142_ _021_ vdd vdd vss vss gf180mcu_fd_sc_mcu7t5v0__clkbuf_1
XFILLER_0_5_72 vdd vdd vss vss gf180mcu_fd_sc_mcu7t5v0__fill_2
X_359_ _010_ clknet_2_3__leaf_wb_clk_i baud_delay\[4\] vdd vdd vss vss gf180mcu_fd_sc_mcu7t5v0__dffq_1
Xinput2 custom_settings[10] net2 vdd vdd vss vss gf180mcu_fd_sc_mcu7t5v0__clkbuf_1
XTAP_TAPCELL_ROW_10_78 vdd vss gf180mcu_fd_sc_mcu7t5v0__filltie
XFILLER_0_20_177 vdd vdd vss vss gf180mcu_fd_sc_mcu7t5v0__fill_2
XTAP_TAPCELL_ROW_6_68 vdd vss gf180mcu_fd_sc_mcu7t5v0__filltie
X_213_ _128_ _129_ vdd vdd vss vss gf180mcu_fd_sc_mcu7t5v0__clkbuf_2
XPHY_EDGE_ROW_6_Left_31 vdd vss gf180mcu_fd_sc_mcu7t5v0__endcap
XFILLER_0_17_30 vdd vdd vss vss gf180mcu_fd_sc_mcu7t5v0__fill_2
XFILLER_0_7_18 vdd vdd vss vss gf180mcu_fd_sc_mcu7t5v0__fillcap_8
XFILLER_0_3_185 vdd vdd vss vss gf180mcu_fd_sc_mcu7t5v0__fillcap_4
XFILLER_0_0_188 vdd vdd vss vss gf180mcu_fd_sc_mcu7t5v0__fillcap_8
XFILLER_0_14_97 vdd vdd vss vss gf180mcu_fd_sc_mcu7t5v0__fill_2
XFILLER_0_12_2 vdd vdd vss vss gf180mcu_fd_sc_mcu7t5v0__fillcap_8
X_375_ _021_ clknet_2_0__leaf_wb_clk_i uart_frame\[4\] vdd vdd vss vss gf180mcu_fd_sc_mcu7t5v0__dffq_1
XFILLER_0_18_128 vdd vdd vss vss gf180mcu_fd_sc_mcu7t5v0__fill_1
XFILLER_0_1_2 vdd vdd vss vss gf180mcu_fd_sc_mcu7t5v0__fillcap_64
X_358_ _009_ clknet_2_2__leaf_wb_clk_i baud_delay\[3\] vdd vdd vss vss gf180mcu_fd_sc_mcu7t5v0__dffq_1
Xinput3 custom_settings[11] net3 vdd vdd vss vss gf180mcu_fd_sc_mcu7t5v0__clkbuf_1
XFILLER_0_23_142 vdd vdd vss vss gf180mcu_fd_sc_mcu7t5v0__fillcap_4
X_289_ _048_ _050_ char_pointer\[3\] _051_ vdd vdd vss vss gf180mcu_fd_sc_mcu7t5v0__aoi21_1
XPHY_EDGE_ROW_18_Right_18 vdd vss gf180mcu_fd_sc_mcu7t5v0__endcap
XTAP_TAPCELL_ROW_10_79 vdd vss gf180mcu_fd_sc_mcu7t5v0__filltie
X_212_ _046_ _128_ vdd vdd vss vss gf180mcu_fd_sc_mcu7t5v0__buf_1
XTAP_TAPCELL_ROW_6_69 vdd vss gf180mcu_fd_sc_mcu7t5v0__filltie
XFILLER_0_22_86 vdd vdd vss vss gf180mcu_fd_sc_mcu7t5v0__fillcap_16
XFILLER_0_22_53 vdd vdd vss vss gf180mcu_fd_sc_mcu7t5v0__fillcap_4
XFILLER_0_20_134 vdd vdd vss vss gf180mcu_fd_sc_mcu7t5v0__fill_1
XFILLER_0_7_139 vdd vdd vss vss gf180mcu_fd_sc_mcu7t5v0__fill_1
XFILLER_0_3_142 vdd vdd vss vss gf180mcu_fd_sc_mcu7t5v0__fillcap_16
XTAP_TAPCELL_ROW_22_110 vdd vss gf180mcu_fd_sc_mcu7t5v0__filltie
XPHY_EDGE_ROW_0_Right_0 vdd vss gf180mcu_fd_sc_mcu7t5v0__endcap
XANTENNA_input6_I custom_settings[3] vdd vdd vss vss gf180mcu_fd_sc_mcu7t5v0__antenna
XFILLER_0_14_6 vdd vdd vss vss gf180mcu_fd_sc_mcu7t5v0__fill_1
X_391_ _037_ clknet_2_0__leaf_wb_clk_i char_at\[4\] vdd vdd vss vss gf180mcu_fd_sc_mcu7t5v0__dffq_1
XFILLER_0_14_54 vdd vdd vss vss gf180mcu_fd_sc_mcu7t5v0__fill_2
XFILLER_0_14_65 vdd vdd vss vss gf180mcu_fd_sc_mcu7t5v0__fill_2
X_374_ _020_ clknet_2_0__leaf_wb_clk_i uart_frame\[3\] vdd vdd vss vss gf180mcu_fd_sc_mcu7t5v0__dffq_1
XFILLER_0_18_118 vdd vdd vss vss gf180mcu_fd_sc_mcu7t5v0__fillcap_8
XFILLER_0_18_107 vdd vdd vss vss gf180mcu_fd_sc_mcu7t5v0__fillcap_4
XFILLER_0_5_30 vdd vdd vss vss gf180mcu_fd_sc_mcu7t5v0__fillcap_4
XFILLER_0_5_74 vdd vdd vss vss gf180mcu_fd_sc_mcu7t5v0__fill_1
X_288_ char_pointer\[2\] _049_ char_pointer\[0\] _050_ vdd vdd vss vss gf180mcu_fd_sc_mcu7t5v0__and3_1
X_357_ _008_ clknet_2_2__leaf_wb_clk_i baud_delay\[2\] vdd vdd vss vss gf180mcu_fd_sc_mcu7t5v0__dffq_1
Xinput4 custom_settings[1] net4 vdd vdd vss vss gf180mcu_fd_sc_mcu7t5v0__clkbuf_1
XFILLER_0_11_33 vdd vdd vss vss gf180mcu_fd_sc_mcu7t5v0__fillcap_4
X_211_ _102_ _127_ _017_ vdd vdd vss vss gf180mcu_fd_sc_mcu7t5v0__nor2_1
XFILLER_0_9_192 vdd vdd vss vss gf180mcu_fd_sc_mcu7t5v0__fill_1
XFILLER_0_20_179 vdd vdd vss vss gf180mcu_fd_sc_mcu7t5v0__fill_1
XFILLER_0_11_146 vdd vdd vss vss gf180mcu_fd_sc_mcu7t5v0__fillcap_4
XFILLER_0_17_32 vdd vdd vss vss gf180mcu_fd_sc_mcu7t5v0__fill_1
X_390_ _036_ clknet_2_1__leaf_wb_clk_i frame_counter\[3\] vdd vdd vss vss gf180mcu_fd_sc_mcu7t5v0__dffq_1
XFILLER_0_14_22 vdd vdd vss vss gf180mcu_fd_sc_mcu7t5v0__fill_2
XFILLER_0_14_33 vdd vdd vss vss gf180mcu_fd_sc_mcu7t5v0__fill_2
X_373_ _019_ clknet_2_0__leaf_wb_clk_i uart_frame\[2\] vdd vdd vss vss gf180mcu_fd_sc_mcu7t5v0__dffq_1
XTAP_TAPCELL_ROW_14_90 vdd vss gf180mcu_fd_sc_mcu7t5v0__filltie
XFILLER_0_23_133 vdd vdd vss vss gf180mcu_fd_sc_mcu7t5v0__fillcap_4
X_287_ char_pointer\[1\] _049_ vdd vdd vss vss gf180mcu_fd_sc_mcu7t5v0__clkbuf_1
X_356_ _007_ clknet_2_2__leaf_wb_clk_i baud_delay\[1\] vdd vdd vss vss gf180mcu_fd_sc_mcu7t5v0__dffq_1
Xinput5 custom_settings[2] net5 vdd vdd vss vss gf180mcu_fd_sc_mcu7t5v0__clkbuf_1
XFILLER_0_14_177 vdd vdd vss vss gf180mcu_fd_sc_mcu7t5v0__fill_2
X_210_ baud_delay\[11\] _126_ _127_ vdd vdd vss vss gf180mcu_fd_sc_mcu7t5v0__xor2_1
XFILLER_0_9_171 vdd vdd vss vss gf180mcu_fd_sc_mcu7t5v0__fill_1
XFILLER_0_19_203 vdd vdd vss vss gf180mcu_fd_sc_mcu7t5v0__fill_2