* NGSPICE file created from tholin_avalonsemi_tbb1143.ext - technology: gf180mcuD

* Black-box entry subcircuit for gf180mcu_fd_sc_mcu7t5v0__fill_2 abstract view
.subckt gf180mcu_fd_sc_mcu7t5v0__fill_2 VDD VNW VPW VSS
.ends

* Black-box entry subcircuit for gf180mcu_fd_sc_mcu7t5v0__filltie abstract view
.subckt gf180mcu_fd_sc_mcu7t5v0__filltie VDD VSS
.ends

* Black-box entry subcircuit for gf180mcu_fd_sc_mcu7t5v0__fillcap_4 abstract view
.subckt gf180mcu_fd_sc_mcu7t5v0__fillcap_4 VDD VNW VPW VSS
.ends

* Black-box entry subcircuit for gf180mcu_fd_sc_mcu7t5v0__fillcap_64 abstract view
.subckt gf180mcu_fd_sc_mcu7t5v0__fillcap_64 VDD VNW VPW VSS
.ends

* Black-box entry subcircuit for gf180mcu_fd_sc_mcu7t5v0__dffrnq_1 abstract view
.subckt gf180mcu_fd_sc_mcu7t5v0__dffrnq_1 D RN CLK Q VDD VNW VPW VSS
.ends

* Black-box entry subcircuit for gf180mcu_fd_sc_mcu7t5v0__mux2_2 abstract view
.subckt gf180mcu_fd_sc_mcu7t5v0__mux2_2 I0 I1 S Z VDD VNW VPW VSS
.ends

* Black-box entry subcircuit for gf180mcu_fd_sc_mcu7t5v0__clkbuf_2 abstract view
.subckt gf180mcu_fd_sc_mcu7t5v0__clkbuf_2 I Z VDD VNW VPW VSS
.ends

* Black-box entry subcircuit for gf180mcu_fd_sc_mcu7t5v0__dffnrnq_1 abstract view
.subckt gf180mcu_fd_sc_mcu7t5v0__dffnrnq_1 D RN CLKN Q VDD VNW VPW VSS
.ends

* Black-box entry subcircuit for gf180mcu_fd_sc_mcu7t5v0__dffsnq_1 abstract view
.subckt gf180mcu_fd_sc_mcu7t5v0__dffsnq_1 D SETN CLK Q VDD VNW VPW VSS
.ends

* Black-box entry subcircuit for gf180mcu_fd_sc_mcu7t5v0__xor2_1 abstract view
.subckt gf180mcu_fd_sc_mcu7t5v0__xor2_1 A1 A2 Z VDD VNW VPW VSS
.ends

* Black-box entry subcircuit for gf180mcu_fd_sc_mcu7t5v0__oai21_1 abstract view
.subckt gf180mcu_fd_sc_mcu7t5v0__oai21_1 A1 A2 B ZN VDD VNW VPW VSS
.ends

* Black-box entry subcircuit for gf180mcu_fd_sc_mcu7t5v0__fill_1 abstract view
.subckt gf180mcu_fd_sc_mcu7t5v0__fill_1 VDD VNW VPW VSS
.ends

* Black-box entry subcircuit for gf180mcu_fd_sc_mcu7t5v0__and4_1 abstract view
.subckt gf180mcu_fd_sc_mcu7t5v0__and4_1 A1 A2 A3 A4 Z VDD VNW VPW VSS
.ends

* Black-box entry subcircuit for gf180mcu_fd_sc_mcu7t5v0__nand2_1 abstract view
.subckt gf180mcu_fd_sc_mcu7t5v0__nand2_1 A1 A2 ZN VDD VNW VPW VSS
.ends

* Black-box entry subcircuit for gf180mcu_fd_sc_mcu7t5v0__fillcap_8 abstract view
.subckt gf180mcu_fd_sc_mcu7t5v0__fillcap_8 VDD VNW VPW VSS
.ends

* Black-box entry subcircuit for gf180mcu_fd_sc_mcu7t5v0__dffq_1 abstract view
.subckt gf180mcu_fd_sc_mcu7t5v0__dffq_1 D CLK Q VDD VNW VPW VSS
.ends

* Black-box entry subcircuit for gf180mcu_fd_sc_mcu7t5v0__nor3_2 abstract view
.subckt gf180mcu_fd_sc_mcu7t5v0__nor3_2 A1 A2 A3 ZN VDD VNW VPW VSS
.ends

* Black-box entry subcircuit for gf180mcu_fd_sc_mcu7t5v0__fillcap_16 abstract view
.subckt gf180mcu_fd_sc_mcu7t5v0__fillcap_16 VDD VNW VPW VSS
.ends

* Black-box entry subcircuit for gf180mcu_fd_sc_mcu7t5v0__endcap abstract view
.subckt gf180mcu_fd_sc_mcu7t5v0__endcap VDD VSS
.ends

* Black-box entry subcircuit for gf180mcu_fd_sc_mcu7t5v0__fillcap_32 abstract view
.subckt gf180mcu_fd_sc_mcu7t5v0__fillcap_32 VDD VNW VPW VSS
.ends

* Black-box entry subcircuit for gf180mcu_fd_sc_mcu7t5v0__antenna abstract view
.subckt gf180mcu_fd_sc_mcu7t5v0__antenna I VDD VNW VPW VSS
.ends

* Black-box entry subcircuit for gf180mcu_fd_sc_mcu7t5v0__clkbuf_1 abstract view
.subckt gf180mcu_fd_sc_mcu7t5v0__clkbuf_1 I Z VDD VNW VPW VSS
.ends

* Black-box entry subcircuit for gf180mcu_fd_sc_mcu7t5v0__nor2_1 abstract view
.subckt gf180mcu_fd_sc_mcu7t5v0__nor2_1 A1 A2 ZN VDD VNW VPW VSS
.ends

* Black-box entry subcircuit for gf180mcu_fd_sc_mcu7t5v0__aoi21_1 abstract view
.subckt gf180mcu_fd_sc_mcu7t5v0__aoi21_1 A1 A2 B ZN VDD VNW VPW VSS
.ends

* Black-box entry subcircuit for gf180mcu_fd_sc_mcu7t5v0__clkinv_1 abstract view
.subckt gf180mcu_fd_sc_mcu7t5v0__clkinv_1 I ZN VDD VNW VPW VSS
.ends

* Black-box entry subcircuit for gf180mcu_fd_sc_mcu7t5v0__aoi22_1 abstract view
.subckt gf180mcu_fd_sc_mcu7t5v0__aoi22_1 A1 A2 B1 B2 ZN VDD VNW VPW VSS
.ends

* Black-box entry subcircuit for gf180mcu_fd_sc_mcu7t5v0__oai221_2 abstract view
.subckt gf180mcu_fd_sc_mcu7t5v0__oai221_2 A1 A2 B1 B2 C ZN VDD VNW VPW VSS
.ends

* Black-box entry subcircuit for gf180mcu_fd_sc_mcu7t5v0__xnor2_1 abstract view
.subckt gf180mcu_fd_sc_mcu7t5v0__xnor2_1 A1 A2 ZN VDD VNW VPW VSS
.ends

* Black-box entry subcircuit for gf180mcu_fd_sc_mcu7t5v0__oai211_1 abstract view
.subckt gf180mcu_fd_sc_mcu7t5v0__oai211_1 A1 A2 B C ZN VDD VNW VPW VSS
.ends

* Black-box entry subcircuit for gf180mcu_fd_sc_mcu7t5v0__oai22_1 abstract view
.subckt gf180mcu_fd_sc_mcu7t5v0__oai22_1 A1 A2 B1 B2 ZN VDD VNW VPW VSS
.ends

* Black-box entry subcircuit for gf180mcu_fd_sc_mcu7t5v0__buf_8 abstract view
.subckt gf180mcu_fd_sc_mcu7t5v0__buf_8 I Z VDD VNW VPW VSS
.ends

* Black-box entry subcircuit for gf180mcu_fd_sc_mcu7t5v0__and2_1 abstract view
.subckt gf180mcu_fd_sc_mcu7t5v0__and2_1 A1 A2 Z VDD VNW VPW VSS
.ends

* Black-box entry subcircuit for gf180mcu_fd_sc_mcu7t5v0__buf_1 abstract view
.subckt gf180mcu_fd_sc_mcu7t5v0__buf_1 I Z VDD VNW VPW VSS
.ends

* Black-box entry subcircuit for gf180mcu_fd_sc_mcu7t5v0__inv_1 abstract view
.subckt gf180mcu_fd_sc_mcu7t5v0__inv_1 I ZN VDD VNW VPW VSS
.ends

* Black-box entry subcircuit for gf180mcu_fd_sc_mcu7t5v0__nand2_2 abstract view
.subckt gf180mcu_fd_sc_mcu7t5v0__nand2_2 A1 A2 ZN VDD VNW VPW VSS
.ends

* Black-box entry subcircuit for gf180mcu_fd_sc_mcu7t5v0__nand4_2 abstract view
.subckt gf180mcu_fd_sc_mcu7t5v0__nand4_2 A1 A2 A3 A4 ZN VDD VNW VPW VSS
.ends

* Black-box entry subcircuit for gf180mcu_fd_sc_mcu7t5v0__nand4_1 abstract view
.subckt gf180mcu_fd_sc_mcu7t5v0__nand4_1 A1 A2 A3 A4 ZN VDD VNW VPW VSS
.ends

* Black-box entry subcircuit for gf180mcu_fd_sc_mcu7t5v0__dffnq_1 abstract view
.subckt gf180mcu_fd_sc_mcu7t5v0__dffnq_1 D CLKN Q VDD VNW VPW VSS
.ends

* Black-box entry subcircuit for gf180mcu_fd_sc_mcu7t5v0__nand3_1 abstract view
.subckt gf180mcu_fd_sc_mcu7t5v0__nand3_1 A1 A2 A3 ZN VDD VNW VPW VSS
.ends

* Black-box entry subcircuit for gf180mcu_fd_sc_mcu7t5v0__oai221_1 abstract view
.subckt gf180mcu_fd_sc_mcu7t5v0__oai221_1 A1 A2 B1 B2 C ZN VDD VNW VPW VSS
.ends

* Black-box entry subcircuit for gf180mcu_fd_sc_mcu7t5v0__nor3_4 abstract view
.subckt gf180mcu_fd_sc_mcu7t5v0__nor3_4 A1 A2 A3 ZN VDD VNW VPW VSS
.ends

* Black-box entry subcircuit for gf180mcu_fd_sc_mcu7t5v0__nor2_2 abstract view
.subckt gf180mcu_fd_sc_mcu7t5v0__nor2_2 A1 A2 ZN VDD VNW VPW VSS
.ends

* Black-box entry subcircuit for gf180mcu_fd_sc_mcu7t5v0__nand4_4 abstract view
.subckt gf180mcu_fd_sc_mcu7t5v0__nand4_4 A1 A2 A3 A4 ZN VDD VNW VPW VSS
.ends

* Black-box entry subcircuit for gf180mcu_fd_sc_mcu7t5v0__aoi211_1 abstract view
.subckt gf180mcu_fd_sc_mcu7t5v0__aoi211_1 A1 A2 B C ZN VDD VNW VPW VSS
.ends

* Black-box entry subcircuit for gf180mcu_fd_sc_mcu7t5v0__or4_1 abstract view
.subckt gf180mcu_fd_sc_mcu7t5v0__or4_1 A1 A2 A3 A4 Z VDD VNW VPW VSS
.ends

* Black-box entry subcircuit for gf180mcu_fd_sc_mcu7t5v0__aoi22_2 abstract view
.subckt gf180mcu_fd_sc_mcu7t5v0__aoi22_2 A1 A2 B1 B2 ZN VDD VNW VPW VSS
.ends

* Black-box entry subcircuit for gf180mcu_fd_sc_mcu7t5v0__and3_1 abstract view
.subckt gf180mcu_fd_sc_mcu7t5v0__and3_1 A1 A2 A3 Z VDD VNW VPW VSS
.ends

* Black-box entry subcircuit for gf180mcu_fd_sc_mcu7t5v0__nor4_2 abstract view
.subckt gf180mcu_fd_sc_mcu7t5v0__nor4_2 A1 A2 A3 A4 ZN VDD VNW VPW VSS
.ends

* Black-box entry subcircuit for gf180mcu_fd_sc_mcu7t5v0__or2_1 abstract view
.subckt gf180mcu_fd_sc_mcu7t5v0__or2_1 A1 A2 Z VDD VNW VPW VSS
.ends

* Black-box entry subcircuit for gf180mcu_fd_sc_mcu7t5v0__or2_2 abstract view
.subckt gf180mcu_fd_sc_mcu7t5v0__or2_2 A1 A2 Z VDD VNW VPW VSS
.ends

* Black-box entry subcircuit for gf180mcu_fd_sc_mcu7t5v0__oai22_2 abstract view
.subckt gf180mcu_fd_sc_mcu7t5v0__oai22_2 A1 A2 B1 B2 ZN VDD VNW VPW VSS
.ends

* Black-box entry subcircuit for gf180mcu_fd_sc_mcu7t5v0__nor4_1 abstract view
.subckt gf180mcu_fd_sc_mcu7t5v0__nor4_1 A1 A2 A3 A4 ZN VDD VNW VPW VSS
.ends

* Black-box entry subcircuit for gf180mcu_fd_sc_mcu7t5v0__xor3_1 abstract view
.subckt gf180mcu_fd_sc_mcu7t5v0__xor3_1 A1 A2 A3 Z VDD VNW VPW VSS
.ends

* Black-box entry subcircuit for gf180mcu_fd_sc_mcu7t5v0__oai21_4 abstract view
.subckt gf180mcu_fd_sc_mcu7t5v0__oai21_4 A1 A2 B ZN VDD VNW VPW VSS
.ends

* Black-box entry subcircuit for gf180mcu_fd_sc_mcu7t5v0__and2_2 abstract view
.subckt gf180mcu_fd_sc_mcu7t5v0__and2_2 A1 A2 Z VDD VNW VPW VSS
.ends

* Black-box entry subcircuit for gf180mcu_fd_sc_mcu7t5v0__oai21_2 abstract view
.subckt gf180mcu_fd_sc_mcu7t5v0__oai21_2 A1 A2 B ZN VDD VNW VPW VSS
.ends

* Black-box entry subcircuit for gf180mcu_fd_sc_mcu7t5v0__nor3_1 abstract view
.subckt gf180mcu_fd_sc_mcu7t5v0__nor3_1 A1 A2 A3 ZN VDD VNW VPW VSS
.ends

* Black-box entry subcircuit for gf180mcu_fd_sc_mcu7t5v0__nand3_2 abstract view
.subckt gf180mcu_fd_sc_mcu7t5v0__nand3_2 A1 A2 A3 ZN VDD VNW VPW VSS
.ends

.subckt tholin_avalonsemi_tbb1143 clk io_in[0] io_in[1] io_in[2] io_in[3] io_in[4]
+ io_in[5] io_out[0] io_out[1] io_out[2] io_out[3] io_out[4] rst_n vdd vss
XFILLER_0_49_303 vdd vdd vss vss gf180mcu_fd_sc_mcu7t5v0__fill_2
XTAP_TAPCELL_ROW_17_191 vdd vss gf180mcu_fd_sc_mcu7t5v0__filltie
XFILLER_0_32_247 vdd vdd vss vss gf180mcu_fd_sc_mcu7t5v0__fillcap_4
XFILLER_0_17_277 vdd vdd vss vss gf180mcu_fd_sc_mcu7t5v0__fill_2
XFILLER_0_23_18 vdd vdd vss vss gf180mcu_fd_sc_mcu7t5v0__fill_2
XFILLER_0_48_37 vdd vdd vss vss gf180mcu_fd_sc_mcu7t5v0__fillcap_64
XFILLER_0_23_269 vdd vdd vss vss gf180mcu_fd_sc_mcu7t5v0__fill_2
X_1270_ CIRCUIT_2223.tone_generator_2_2.MEMORY_32.d _0048_ CIRCUIT_2223.MEMORY_18.s_currentState
+ CIRCUIT_2223.tone_generator_2_2.MEMORY_32.s_currentState vdd vdd vss vss gf180mcu_fd_sc_mcu7t5v0__dffrnq_1
X_0985_ _0165_ CIRCUIT_2223.tone_generator_2_2.GATES_8.input2 _0446_ _0447_ vdd vdd
+ vss vss gf180mcu_fd_sc_mcu7t5v0__mux2_2
XFILLER_0_9_274 vdd vdd vss vss gf180mcu_fd_sc_mcu7t5v0__fillcap_4
XFILLER_0_43_309 vdd vdd vss vss gf180mcu_fd_sc_mcu7t5v0__fillcap_4
XTAP_TAPCELL_ROW_11_164 vdd vss gf180mcu_fd_sc_mcu7t5v0__filltie
X_0770_ _0164_ _0295_ vdd vdd vss vss gf180mcu_fd_sc_mcu7t5v0__clkbuf_2
X_1253_ CIRCUIT_2223.tone_generator_2_1.MEMORY_28.clock _0043_ CIRCUIT_2223.tone_generator_2_1.MEMORY_37.s_currentState
+ CIRCUIT_2223.tone_generator_2_1.MEMORY_38.s_currentState vdd vdd vss vss gf180mcu_fd_sc_mcu7t5v0__dffnrnq_1
X_1184_ CIRCUIT_2223.tone_generator_1.MEMORY_11.s_currentState _0002_ net19 CIRCUIT_2223.tone_generator_1.MEMORY_12.s_currentState
+ vdd vdd vss vss gf180mcu_fd_sc_mcu7t5v0__dffsnq_1
XTAP_TAPCELL_ROW_34_278 vdd vss gf180mcu_fd_sc_mcu7t5v0__filltie
XFILLER_0_6_211 vdd vdd vss vss gf180mcu_fd_sc_mcu7t5v0__fillcap_4
X_0968_ _0434_ _0436_ _0437_ vdd vdd vss vss gf180mcu_fd_sc_mcu7t5v0__xor2_1
XFILLER_0_19_317 vdd vdd vss vss gf180mcu_fd_sc_mcu7t5v0__fill_2
X_0899_ _0193_ _0387_ _0390_ _0104_ vdd vdd vss vss gf180mcu_fd_sc_mcu7t5v0__oai21_1
XTAP_TAPCELL_ROW_25_234 vdd vss gf180mcu_fd_sc_mcu7t5v0__filltie
XFILLER_0_18_383 vdd vdd vss vss gf180mcu_fd_sc_mcu7t5v0__fill_1
XFILLER_0_20_19 vdd vdd vss vss gf180mcu_fd_sc_mcu7t5v0__fillcap_4
XTAP_TAPCELL_ROW_48_348 vdd vss gf180mcu_fd_sc_mcu7t5v0__filltie
X_0822_ CIRCUIT_2223.GATES_3.input2 CIRCUIT_2223.GATES_2.input2 CIRCUIT_2223.tone_generator_2_2.MEMORY_39.s_currentState
+ CIRCUIT_2223.tone_generator_2_1.MEMORY_39.s_currentState _0338_ vdd vdd vss vss
+ gf180mcu_fd_sc_mcu7t5v0__and4_1
X_0753_ spi_dac_i_2.spi_dat_buff\[4\] _0073_ _0282_ vdd vdd vss vss gf180mcu_fd_sc_mcu7t5v0__nand2_1
X_0684_ CIRCUIT_2223.tone_generator_2_1.MEMORY_36.s_currentState CIRCUIT_2223.tone_generator_2_1.GATES_15.input2
+ _0223_ vdd vdd vss vss gf180mcu_fd_sc_mcu7t5v0__xor2_1
XFILLER_0_10_85 vdd vdd vss vss gf180mcu_fd_sc_mcu7t5v0__fillcap_8
XTAP_TAPCELL_ROW_39_304 vdd vss gf180mcu_fd_sc_mcu7t5v0__filltie
X_1236_ _0115_ net26 CIRCUIT_2223.triangle_wave_generator_1.GATES_12.input2 vdd vdd
+ vss vss gf180mcu_fd_sc_mcu7t5v0__dffq_1
XFILLER_0_19_72 vdd vdd vss vss gf180mcu_fd_sc_mcu7t5v0__fillcap_4
X_1167_ _0093_ net59 slow_clock\[2\] vdd vdd vss vss gf180mcu_fd_sc_mcu7t5v0__dffq_1
XFILLER_0_35_60 vdd vdd vss vss gf180mcu_fd_sc_mcu7t5v0__fill_1
X_1098_ _0373_ _0172_ _0462_ _0516_ vdd vdd vss vss gf180mcu_fd_sc_mcu7t5v0__nor3_2
XFILLER_0_19_147 vdd vdd vss vss gf180mcu_fd_sc_mcu7t5v0__fill_2
XFILLER_0_30_312 vdd vdd vss vss gf180mcu_fd_sc_mcu7t5v0__fill_2
XFILLER_0_27_191 vdd vdd vss vss gf180mcu_fd_sc_mcu7t5v0__fillcap_16
XPHY_EDGE_ROW_8_Left_58 vdd vss gf180mcu_fd_sc_mcu7t5v0__endcap
XFILLER_0_2_280 vdd vdd vss vss gf180mcu_fd_sc_mcu7t5v0__fill_1
XFILLER_0_25_117 vdd vdd vss vss gf180mcu_fd_sc_mcu7t5v0__fillcap_16
XFILLER_0_25_139 vdd vdd vss vss gf180mcu_fd_sc_mcu7t5v0__fill_1
XFILLER_0_0_206 vdd vdd vss vss gf180mcu_fd_sc_mcu7t5v0__fillcap_32
XANTENNA__0780__A1 _0302_ vdd vdd vss vss gf180mcu_fd_sc_mcu7t5v0__antenna
X_1021_ _0469_ _0035_ vdd vdd vss vss gf180mcu_fd_sc_mcu7t5v0__clkbuf_1
X_0805_ _0319_ _0322_ _0323_ vdd vdd vss vss gf180mcu_fd_sc_mcu7t5v0__nor2_1
XFILLER_0_24_161 vdd vdd vss vss gf180mcu_fd_sc_mcu7t5v0__fill_2
X_0736_ _0267_ spi_dac_i_2.counter\[1\] _0271_ _0069_ vdd vdd vss vss gf180mcu_fd_sc_mcu7t5v0__aoi21_1
X_0598_ CIRCUIT_2223.triangle_wave_generator_1.MEMORY_30.s_currentState CIRCUIT_2223.triangle_wave_generator_1.MEMORY_30.d
+ vdd vdd vss vss gf180mcu_fd_sc_mcu7t5v0__clkinv_1
X_0667_ CIRCUIT_2223.triangle_wave_generator_1.MEMORY_38.s_currentState _0205_ _0206_
+ CIRCUIT_2223.triangle_wave_generator_1.MEMORY_30.s_currentState _0207_ vdd vdd vss
+ vss gf180mcu_fd_sc_mcu7t5v0__aoi22_1
X_1219_ CIRCUIT_2223.triangle_wave_generator_1.MEMORY_30.d _0024_ CIRCUIT_2223.triangle_wave_generator_1.MEMORY_29.s_currentState
+ CIRCUIT_2223.triangle_wave_generator_1.MEMORY_30.s_currentState vdd vdd vss vss
+ gf180mcu_fd_sc_mcu7t5v0__dffnrnq_1
XFILLER_0_27_2 vdd vdd vss vss gf180mcu_fd_sc_mcu7t5v0__fillcap_32
XFILLER_0_47_220 vdd vdd vss vss gf180mcu_fd_sc_mcu7t5v0__fillcap_4
XFILLER_0_1_72 vdd vdd vss vss gf180mcu_fd_sc_mcu7t5v0__fillcap_16
XFILLER_0_7_372 vdd vdd vss vss gf180mcu_fd_sc_mcu7t5v0__fill_2
XFILLER_0_30_197 vdd vdd vss vss gf180mcu_fd_sc_mcu7t5v0__fillcap_4
XFILLER_0_21_142 vdd vdd vss vss gf180mcu_fd_sc_mcu7t5v0__fill_1
XFILLER_0_16_62 vdd vdd vss vss gf180mcu_fd_sc_mcu7t5v0__fillcap_4
XFILLER_0_32_83 vdd vdd vss vss gf180mcu_fd_sc_mcu7t5v0__fillcap_16
XFILLER_0_8_158 vdd vdd vss vss gf180mcu_fd_sc_mcu7t5v0__fillcap_8
XFILLER_0_8_136 vdd vdd vss vss gf180mcu_fd_sc_mcu7t5v0__fillcap_4
X_1004_ _0456_ _0458_ vdd vdd vss vss gf180mcu_fd_sc_mcu7t5v0__clkbuf_1
XFILLER_0_44_278 vdd vdd vss vss gf180mcu_fd_sc_mcu7t5v0__fill_2
XFILLER_0_12_186 vdd vdd vss vss gf180mcu_fd_sc_mcu7t5v0__fill_2
X_0719_ CIRCUIT_2223.tone_generator_2_2.GATES_11.input2 _0257_ vdd vdd vss vss gf180mcu_fd_sc_mcu7t5v0__clkinv_1
XFILLER_0_35_201 vdd vdd vss vss gf180mcu_fd_sc_mcu7t5v0__fill_2
XFILLER_0_35_212 vdd vdd vss vss gf180mcu_fd_sc_mcu7t5v0__fillcap_4
XFILLER_0_1_378 vdd vdd vss vss gf180mcu_fd_sc_mcu7t5v0__fillcap_4
XFILLER_0_1_345 vdd vdd vss vss gf180mcu_fd_sc_mcu7t5v0__fillcap_4
XFILLER_0_1_356 vdd vdd vss vss gf180mcu_fd_sc_mcu7t5v0__fill_2
XFILLER_0_27_72 vdd vdd vss vss gf180mcu_fd_sc_mcu7t5v0__fillcap_8
XTAP_TAPCELL_ROW_17_192 vdd vss gf180mcu_fd_sc_mcu7t5v0__filltie
XFILLER_0_4_172 vdd vdd vss vss gf180mcu_fd_sc_mcu7t5v0__fill_2
XPHY_EDGE_ROW_37_Left_87 vdd vss gf180mcu_fd_sc_mcu7t5v0__endcap
XFILLER_0_39_381 vdd vdd vss vss gf180mcu_fd_sc_mcu7t5v0__fill_2
X_0984_ _0154_ _0445_ _0446_ vdd vdd vss vss gf180mcu_fd_sc_mcu7t5v0__nand2_1
XANTENNA__1124__A1 net7 vdd vdd vss vss gf180mcu_fd_sc_mcu7t5v0__antenna
XFILLER_0_37_329 vdd vdd vss vss gf180mcu_fd_sc_mcu7t5v0__fillcap_4
XFILLER_0_9_286 vdd vdd vss vss gf180mcu_fd_sc_mcu7t5v0__fill_2
XTAP_TAPCELL_ROW_11_165 vdd vss gf180mcu_fd_sc_mcu7t5v0__filltie
XANTENNA__1221__CLK net25 vdd vdd vss vss gf180mcu_fd_sc_mcu7t5v0__antenna
X_1252_ CIRCUIT_2223.tone_generator_2_1.MEMORY_37.d _0042_ CIRCUIT_2223.tone_generator_2_1.MEMORY_36.s_currentState
+ CIRCUIT_2223.tone_generator_2_1.MEMORY_37.s_currentState vdd vdd vss vss gf180mcu_fd_sc_mcu7t5v0__dffnrnq_1
X_1183_ CIRCUIT_2223.tone_generator_1.MEMORY_10.s_currentState net19 CIRCUIT_2223.tone_generator_1.MEMORY_11.s_currentState
+ vdd vdd vss vss gf180mcu_fd_sc_mcu7t5v0__dffq_1
XFILLER_0_40_61 vdd vdd vss vss gf180mcu_fd_sc_mcu7t5v0__fill_2
XTAP_TAPCELL_ROW_34_279 vdd vss gf180mcu_fd_sc_mcu7t5v0__filltie
X_0967_ _0428_ _0436_ vdd vdd vss vss gf180mcu_fd_sc_mcu7t5v0__clkbuf_2
XFILLER_0_24_95 vdd vdd vss vss gf180mcu_fd_sc_mcu7t5v0__fill_1
XFILLER_0_49_70 vdd vdd vss vss gf180mcu_fd_sc_mcu7t5v0__fillcap_32
X_0898_ _0389_ _0386_ _0390_ vdd vdd vss vss gf180mcu_fd_sc_mcu7t5v0__nand2_1
XPHY_EDGE_ROW_12_Right_12 vdd vss gf180mcu_fd_sc_mcu7t5v0__endcap
XFILLER_0_4_61 vdd vdd vss vss gf180mcu_fd_sc_mcu7t5v0__fillcap_4
XPHY_EDGE_ROW_21_Right_21 vdd vss gf180mcu_fd_sc_mcu7t5v0__endcap
XTAP_TAPCELL_ROW_25_235 vdd vss gf180mcu_fd_sc_mcu7t5v0__filltie
XFILLER_0_33_343 vdd vdd vss vss gf180mcu_fd_sc_mcu7t5v0__fill_1
XPHY_EDGE_ROW_30_Right_30 vdd vss gf180mcu_fd_sc_mcu7t5v0__endcap
XFILLER_0_18_373 vdd vdd vss vss gf180mcu_fd_sc_mcu7t5v0__fillcap_8
XTAP_TAPCELL_ROW_48_349 vdd vss gf180mcu_fd_sc_mcu7t5v0__filltie
X_0752_ spi_dac_i_2.spi_dat_buff\[3\] _0068_ _0281_ vdd vdd vss vss gf180mcu_fd_sc_mcu7t5v0__nand2_1
X_0821_ _0337_ _0088_ vdd vdd vss vss gf180mcu_fd_sc_mcu7t5v0__clkbuf_1
XFILLER_0_3_226 vdd vdd vss vss gf180mcu_fd_sc_mcu7t5v0__fill_1
X_0683_ CIRCUIT_2223.tone_generator_2_1.MEMORY_37.s_currentState _0220_ CIRCUIT_2223.tone_generator_2_1.GATES_8.input2
+ CIRCUIT_2223.tone_generator_2_1.MEMORY_29.d _0221_ _0222_ vdd vdd vss vss gf180mcu_fd_sc_mcu7t5v0__oai221_2
XFILLER_0_19_40 vdd vdd vss vss gf180mcu_fd_sc_mcu7t5v0__fill_2
XPHY_EDGE_ROW_24_Left_74 vdd vss gf180mcu_fd_sc_mcu7t5v0__endcap
X_1166_ _0092_ net51 slow_clock\[1\] vdd vdd vss vss gf180mcu_fd_sc_mcu7t5v0__dffq_1
XTAP_TAPCELL_ROW_39_305 vdd vss gf180mcu_fd_sc_mcu7t5v0__filltie
XFILLER_0_35_50 vdd vdd vss vss gf180mcu_fd_sc_mcu7t5v0__fillcap_8
X_1235_ _0114_ net26 CIRCUIT_2223.triangle_wave_generator_1.GATES_11.input2 vdd vdd
+ vss vss gf180mcu_fd_sc_mcu7t5v0__dffq_1
XFILLER_0_34_107 vdd vdd vss vss gf180mcu_fd_sc_mcu7t5v0__fill_2
XFILLER_0_19_115 vdd vdd vss vss gf180mcu_fd_sc_mcu7t5v0__fill_1
XTAP_TAPCELL_ROW_22_216 vdd vss gf180mcu_fd_sc_mcu7t5v0__filltie
X_1097_ _0515_ _0054_ vdd vdd vss vss gf180mcu_fd_sc_mcu7t5v0__clkbuf_1
XTAP_TAPCELL_ROW_30_260 vdd vss gf180mcu_fd_sc_mcu7t5v0__filltie
XFILLER_0_33_162 vdd vdd vss vss gf180mcu_fd_sc_mcu7t5v0__fill_2
X_1020_ _0422_ _0466_ _0469_ vdd vdd vss vss gf180mcu_fd_sc_mcu7t5v0__xnor2_1
XTAP_TAPCELL_ROW_44_330 vdd vss gf180mcu_fd_sc_mcu7t5v0__filltie
X_0804_ _0320_ CIRCUIT_2223.GATES_4.input1\[2\] CIRCUIT_2223.triangle_wave_generator_1.MEMORY_41.s_currentState
+ _0321_ _0322_ vdd vdd vss vss gf180mcu_fd_sc_mcu7t5v0__aoi22_1
X_0735_ _0267_ spi_dac_i_2.counter\[1\] _0269_ _0270_ _0271_ vdd vdd vss vss gf180mcu_fd_sc_mcu7t5v0__oai211_1
XFILLER_0_21_63 vdd vdd vss vss gf180mcu_fd_sc_mcu7t5v0__fillcap_4
XFILLER_0_24_173 vdd vdd vss vss gf180mcu_fd_sc_mcu7t5v0__fill_2
X_0597_ CIRCUIT_2223.triangle_wave_generator_1.MEMORY_29.s_currentState CIRCUIT_2223.triangle_wave_generator_1.MEMORY_29.d
+ vdd vdd vss vss gf180mcu_fd_sc_mcu7t5v0__clkinv_1
X_0666_ CIRCUIT_2223.triangle_wave_generator_1.GATES_9.input2 _0206_ vdd vdd vss vss
+ gf180mcu_fd_sc_mcu7t5v0__clkinv_1
X_1149_ _0075_ net57 spi_dac_i_2.spi_dat_buff\[3\] vdd vdd vss vss gf180mcu_fd_sc_mcu7t5v0__dffq_1
X_1218_ CIRCUIT_2223.triangle_wave_generator_1.MEMORY_29.d _0023_ CIRCUIT_2223.triangle_wave_generator_1.MEMORY_28.s_currentState
+ CIRCUIT_2223.triangle_wave_generator_1.MEMORY_29.s_currentState vdd vdd vss vss
+ gf180mcu_fd_sc_mcu7t5v0__dffnrnq_1
XFILLER_0_30_165 vdd vdd vss vss gf180mcu_fd_sc_mcu7t5v0__fill_2
XTAP_TAPCELL_ROW_41_311 vdd vss gf180mcu_fd_sc_mcu7t5v0__filltie
XFILLER_0_38_298 vdd vdd vss vss gf180mcu_fd_sc_mcu7t5v0__fillcap_4
XANTENNA__1002__I0 _0165_ vdd vdd vss vss gf180mcu_fd_sc_mcu7t5v0__antenna
XANTENNA__0577__I CIRCUIT_2223.MEMORY_18.s_currentState vdd vdd vss vss gf180mcu_fd_sc_mcu7t5v0__antenna
XFILLER_0_16_85 vdd vdd vss vss gf180mcu_fd_sc_mcu7t5v0__fill_1
X_1003_ _0457_ _0118_ vdd vdd vss vss gf180mcu_fd_sc_mcu7t5v0__clkbuf_1
XFILLER_0_29_232 vdd vdd vss vss gf180mcu_fd_sc_mcu7t5v0__fill_2
XPHY_EDGE_ROW_6_Right_6 vdd vss gf180mcu_fd_sc_mcu7t5v0__endcap
X_0718_ CIRCUIT_2223.tone_generator_2_2.MEMORY_35.s_currentState _0248_ _0252_ CIRCUIT_2223.tone_generator_2_2.MEMORY_30.s_currentState
+ _0256_ vdd vdd vss vss gf180mcu_fd_sc_mcu7t5v0__oai22_1
X_0649_ CIRCUIT_2223.tone_generator_1.tone_generator_2_1.GATES_15.input2 _0190_ vdd
+ vdd vss vss gf180mcu_fd_sc_mcu7t5v0__clkinv_1
XPHY_EDGE_ROW_11_Left_61 vdd vss gf180mcu_fd_sc_mcu7t5v0__endcap
XFILLER_0_35_235 vdd vdd vss vss gf180mcu_fd_sc_mcu7t5v0__fill_2
XFILLER_0_35_224 vdd vdd vss vss gf180mcu_fd_sc_mcu7t5v0__fill_1
Xoutput10 net10 io_out[1] vdd vdd vss vss gf180mcu_fd_sc_mcu7t5v0__buf_8
XFILLER_0_9_2 vdd vdd vss vss gf180mcu_fd_sc_mcu7t5v0__fillcap_64
XANTENNA_input3_I io_in[1] vdd vdd vss vss gf180mcu_fd_sc_mcu7t5v0__antenna
XFILLER_0_49_305 vdd vdd vss vss gf180mcu_fd_sc_mcu7t5v0__fill_1
XFILLER_0_43_72 vdd vdd vss vss gf180mcu_fd_sc_mcu7t5v0__fillcap_64
XTAP_TAPCELL_ROW_17_193 vdd vss gf180mcu_fd_sc_mcu7t5v0__filltie
XFILLER_0_17_257 vdd vdd vss vss gf180mcu_fd_sc_mcu7t5v0__fillcap_4
XFILLER_0_17_279 vdd vdd vss vss gf180mcu_fd_sc_mcu7t5v0__fill_1
XFILLER_0_31_282 vdd vdd vss vss gf180mcu_fd_sc_mcu7t5v0__fillcap_64
XTAP_TAPCELL_ROW_8_150 vdd vss gf180mcu_fd_sc_mcu7t5v0__filltie
XFILLER_0_14_227 vdd vdd vss vss gf180mcu_fd_sc_mcu7t5v0__fill_2
X_0983_ _0151_ _0424_ _0445_ vdd vdd vss vss gf180mcu_fd_sc_mcu7t5v0__and2_1
XFILLER_0_1_132 vdd vdd vss vss gf180mcu_fd_sc_mcu7t5v0__fill_2
XFILLER_0_1_154 vdd vdd vss vss gf180mcu_fd_sc_mcu7t5v0__fill_2
XANTENNA_fanout61_I net1 vdd vdd vss vss gf180mcu_fd_sc_mcu7t5v0__antenna
XFILLER_0_9_232 vdd vdd vss vss gf180mcu_fd_sc_mcu7t5v0__fill_1
XTAP_TAPCELL_ROW_5_131 vdd vss gf180mcu_fd_sc_mcu7t5v0__filltie
XFILLER_0_11_208 vdd vdd vss vss gf180mcu_fd_sc_mcu7t5v0__fill_2
X_1182_ CIRCUIT_2223.tone_generator_1.GATES_3.result net19 CIRCUIT_2223.tone_generator_1.MEMORY_10.s_currentState
+ vdd vdd vss vss gf180mcu_fd_sc_mcu7t5v0__dffq_1
X_1251_ CIRCUIT_2223.tone_generator_2_1.MEMORY_36.d _0041_ CIRCUIT_2223.tone_generator_2_1.MEMORY_35.s_currentState
+ CIRCUIT_2223.tone_generator_2_1.MEMORY_36.s_currentState vdd vdd vss vss gf180mcu_fd_sc_mcu7t5v0__dffnrnq_1
XFILLER_0_27_374 vdd vdd vss vss gf180mcu_fd_sc_mcu7t5v0__fillcap_8
XFILLER_0_27_352 vdd vdd vss vss gf180mcu_fd_sc_mcu7t5v0__fill_2
XFILLER_0_6_235 vdd vdd vss vss gf180mcu_fd_sc_mcu7t5v0__fillcap_8
X_0897_ _0161_ _0389_ vdd vdd vss vss gf180mcu_fd_sc_mcu7t5v0__clkbuf_2
X_0966_ _0435_ _0025_ vdd vdd vss vss gf180mcu_fd_sc_mcu7t5v0__clkbuf_1
X_0751_ _0279_ _0280_ _0075_ vdd vdd vss vss gf180mcu_fd_sc_mcu7t5v0__nand2_1
X_0820_ _0293_ _0336_ _0337_ vdd vdd vss vss gf180mcu_fd_sc_mcu7t5v0__and2_1
XFILLER_0_36_193 vdd vdd vss vss gf180mcu_fd_sc_mcu7t5v0__fill_2
XFILLER_0_3_216 vdd vdd vss vss gf180mcu_fd_sc_mcu7t5v0__fillcap_8
XFILLER_0_24_377 vdd vdd vss vss gf180mcu_fd_sc_mcu7t5v0__fillcap_4
X_1303_ CIRCUIT_2223.MEMORY_18.d _0067_ CIRCUIT_2223.MEMORY_26.s_currentState CIRCUIT_2223.MEMORY_18.s_currentState
+ vdd vdd vss vss gf180mcu_fd_sc_mcu7t5v0__dffnrnq_1
X_0682_ CIRCUIT_2223.tone_generator_2_1.MEMORY_33.d CIRCUIT_2223.tone_generator_2_1.GATES_12.input2
+ _0220_ CIRCUIT_2223.tone_generator_2_1.MEMORY_37.s_currentState _0221_ vdd vdd vss
+ vss gf180mcu_fd_sc_mcu7t5v0__aoi22_1
X_1165_ _0091_ net51 slow_clock\[0\] vdd vdd vss vss gf180mcu_fd_sc_mcu7t5v0__dffq_1
X_1096_ _0367_ _0500_ _0515_ vdd vdd vss vss gf180mcu_fd_sc_mcu7t5v0__xnor2_1
X_1234_ _0113_ net45 CIRCUIT_2223.tone_generator_2_2.GATES_10.input2 vdd vdd vss vss
+ gf180mcu_fd_sc_mcu7t5v0__dffq_1
XANTENNA_fanout24_I net25 vdd vdd vss vss gf180mcu_fd_sc_mcu7t5v0__antenna
XFILLER_0_19_138 vdd vdd vss vss gf180mcu_fd_sc_mcu7t5v0__fill_2
XFILLER_0_19_149 vdd vdd vss vss gf180mcu_fd_sc_mcu7t5v0__fill_1
XTAP_TAPCELL_ROW_22_217 vdd vss gf180mcu_fd_sc_mcu7t5v0__filltie
XFILLER_0_42_163 vdd vdd vss vss gf180mcu_fd_sc_mcu7t5v0__fillcap_8
XFILLER_0_30_325 vdd vdd vss vss gf180mcu_fd_sc_mcu7t5v0__fill_2
XFILLER_0_30_314 vdd vdd vss vss gf180mcu_fd_sc_mcu7t5v0__fill_1
X_0949_ _0423_ _0021_ vdd vdd vss vss gf180mcu_fd_sc_mcu7t5v0__clkbuf_1
XPHY_EDGE_ROW_41_Left_91 vdd vss gf180mcu_fd_sc_mcu7t5v0__endcap
XANTENNA__1024__I _0366_ vdd vdd vss vss gf180mcu_fd_sc_mcu7t5v0__antenna
XANTENNA__0863__I _0354_ vdd vdd vss vss gf180mcu_fd_sc_mcu7t5v0__antenna
X_0803_ CIRCUIT_2223.GATES_5.input2 _0321_ vdd vdd vss vss gf180mcu_fd_sc_mcu7t5v0__buf_1
X_0734_ _0263_ _0270_ vdd vdd vss vss gf180mcu_fd_sc_mcu7t5v0__buf_1
XFILLER_0_12_325 vdd vdd vss vss gf180mcu_fd_sc_mcu7t5v0__fill_2
X_0665_ CIRCUIT_2223.triangle_wave_generator_1.GATES_17.input2 _0205_ vdd vdd vss
+ vss gf180mcu_fd_sc_mcu7t5v0__clkinv_1
XFILLER_0_24_152 vdd vdd vss vss gf180mcu_fd_sc_mcu7t5v0__fillcap_4
XFILLER_0_24_196 vdd vdd vss vss gf180mcu_fd_sc_mcu7t5v0__fill_2
X_0596_ CIRCUIT_2223.triangle_wave_generator_1.MEMORY_28.s_currentState CIRCUIT_2223.triangle_wave_generator_1.MEMORY_28.d
+ vdd vdd vss vss gf180mcu_fd_sc_mcu7t5v0__clkinv_1
X_1148_ _0074_ net56 spi_dac_i_2.spi_dat_buff\[2\] vdd vdd vss vss gf180mcu_fd_sc_mcu7t5v0__dffq_1
X_1079_ _0505_ _0046_ vdd vdd vss vss gf180mcu_fd_sc_mcu7t5v0__clkbuf_1
X_1217_ CIRCUIT_2223.triangle_wave_generator_1.MEMORY_28.d _0022_ CIRCUIT_2223.triangle_wave_generator_1.MEMORY_38.s_currentState
+ CIRCUIT_2223.triangle_wave_generator_1.MEMORY_28.s_currentState vdd vdd vss vss
+ gf180mcu_fd_sc_mcu7t5v0__dffnrnq_1
XTAP_TAPCELL_ROW_41_312 vdd vss gf180mcu_fd_sc_mcu7t5v0__filltie
X_1002_ _0165_ CIRCUIT_2223.triangle_wave_generator_1.GATES_15.input2 _0456_ _0457_
+ vdd vdd vss vss gf180mcu_fd_sc_mcu7t5v0__mux2_2
XFILLER_0_29_266 vdd vdd vss vss gf180mcu_fd_sc_mcu7t5v0__fillcap_8
X_0648_ CIRCUIT_2223.tone_generator_1.tone_generator_2_1.MEMORY_32.d CIRCUIT_2223.tone_generator_1.tone_generator_2_1.GATES_11.input2
+ CIRCUIT_2223.tone_generator_1.tone_generator_2_1.GATES_12.input2 CIRCUIT_2223.tone_generator_1.tone_generator_2_1.MEMORY_33.d
+ _0189_ vdd vdd vss vss gf180mcu_fd_sc_mcu7t5v0__aoi22_1
XFILLER_0_12_111 vdd vdd vss vss gf180mcu_fd_sc_mcu7t5v0__fill_2
XFILLER_0_12_177 vdd vdd vss vss gf180mcu_fd_sc_mcu7t5v0__fill_2
X_0717_ CIRCUIT_2223.tone_generator_2_2.MEMORY_28.clock CIRCUIT_2223.tone_generator_2_2.GATES_17.input2
+ _0251_ CIRCUIT_2223.tone_generator_2_2.MEMORY_28.s_currentState _0255_ vdd vdd vss
+ vss gf180mcu_fd_sc_mcu7t5v0__oai22_1
XFILLER_0_32_2 vdd vdd vss vss gf180mcu_fd_sc_mcu7t5v0__fillcap_32
X_0579_ _0174_ CIRCUIT_2223.GATES_11.result vdd vdd vss vss gf180mcu_fd_sc_mcu7t5v0__clkinv_1
Xoutput11 net11 io_out[2] vdd vdd vss vss gf180mcu_fd_sc_mcu7t5v0__buf_8
Xoutput9 net9 io_out[0] vdd vdd vss vss gf180mcu_fd_sc_mcu7t5v0__buf_8
XTAP_TAPCELL_ROW_17_194 vdd vss gf180mcu_fd_sc_mcu7t5v0__filltie
XFILLER_0_4_174 vdd vdd vss vss gf180mcu_fd_sc_mcu7t5v0__fill_1
XFILLER_0_40_261 vdd vdd vss vss gf180mcu_fd_sc_mcu7t5v0__fill_1
XFILLER_0_39_383 vdd vdd vss vss gf180mcu_fd_sc_mcu7t5v0__fill_1
X_0982_ _0444_ _0032_ vdd vdd vss vss gf180mcu_fd_sc_mcu7t5v0__clkbuf_1
XFILLER_0_38_84 vdd vdd vss vss gf180mcu_fd_sc_mcu7t5v0__fillcap_16
XFILLER_0_9_288 vdd vdd vss vss gf180mcu_fd_sc_mcu7t5v0__fill_1
XTAP_TAPCELL_ROW_5_132 vdd vss gf180mcu_fd_sc_mcu7t5v0__filltie
X_1181_ CIRCUIT_2223.tone_generator_1.MEMORY_8.s_currentState net17 CIRCUIT_2223.tone_generator_1.MEMORY_9.s_currentState
+ vdd vdd vss vss gf180mcu_fd_sc_mcu7t5v0__dffq_1
X_1250_ CIRCUIT_2223.tone_generator_2_1.MEMORY_35.d _0040_ CIRCUIT_2223.tone_generator_2_1.MEMORY_34.s_currentState
+ CIRCUIT_2223.tone_generator_2_1.MEMORY_35.s_currentState vdd vdd vss vss gf180mcu_fd_sc_mcu7t5v0__dffnrnq_1
XTAP_TAPCELL_ROW_19_201 vdd vss gf180mcu_fd_sc_mcu7t5v0__filltie
XFILLER_0_42_301 vdd vdd vss vss gf180mcu_fd_sc_mcu7t5v0__fillcap_8
XFILLER_0_6_247 vdd vdd vss vss gf180mcu_fd_sc_mcu7t5v0__fill_2
X_0896_ _0196_ _0387_ _0388_ _0103_ vdd vdd vss vss gf180mcu_fd_sc_mcu7t5v0__oai21_1
X_0965_ _0434_ _0430_ _0435_ vdd vdd vss vss gf180mcu_fd_sc_mcu7t5v0__xor2_1
XFILLER_0_10_264 vdd vdd vss vss gf180mcu_fd_sc_mcu7t5v0__fill_2
XFILLER_0_37_139 vdd vdd vss vss gf180mcu_fd_sc_mcu7t5v0__fill_1
X_0750_ spi_dac_i_2.spi_dat_buff\[3\] _0073_ _0280_ vdd vdd vss vss gf180mcu_fd_sc_mcu7t5v0__nand2_1
X_0681_ CIRCUIT_2223.tone_generator_2_1.GATES_16.input2 _0220_ vdd vdd vss vss gf180mcu_fd_sc_mcu7t5v0__inv_1
XFILLER_0_24_312 vdd vdd vss vss gf180mcu_fd_sc_mcu7t5v0__fill_2
X_1302_ CIRCUIT_2223.MEMORY_19.d _0066_ CIRCUIT_2223.MEMORY_18.s_currentState CIRCUIT_2223.MEMORY_19.s_currentState
+ vdd vdd vss vss gf180mcu_fd_sc_mcu7t5v0__dffnrnq_1
X_1233_ _0112_ net45 CIRCUIT_2223.tone_generator_2_2.GATES_9.input2 vdd vdd vss vss
+ gf180mcu_fd_sc_mcu7t5v0__dffq_1
X_1164_ _0090_ net50 spi_dac_i_2.spi_dat_buff\[11\] vdd vdd vss vss gf180mcu_fd_sc_mcu7t5v0__dffq_1
X_1095_ _0514_ _0053_ vdd vdd vss vss gf180mcu_fd_sc_mcu7t5v0__clkbuf_1
XANTENNA__1163__CLK net53 vdd vdd vss vss gf180mcu_fd_sc_mcu7t5v0__antenna
X_0948_ _0422_ _0407_ _0423_ vdd vdd vss vss gf180mcu_fd_sc_mcu7t5v0__xnor2_1
XTAP_TAPCELL_ROW_22_218 vdd vss gf180mcu_fd_sc_mcu7t5v0__filltie
XFILLER_0_30_348 vdd vdd vss vss gf180mcu_fd_sc_mcu7t5v0__fillcap_4
X_0879_ net4 _0376_ vdd vdd vss vss gf180mcu_fd_sc_mcu7t5v0__buf_1
XFILLER_0_33_197 vdd vdd vss vss gf180mcu_fd_sc_mcu7t5v0__fill_1
XFILLER_0_33_142 vdd vdd vss vss gf180mcu_fd_sc_mcu7t5v0__fill_1
XFILLER_0_33_131 vdd vdd vss vss gf180mcu_fd_sc_mcu7t5v0__fill_1
X_0802_ CIRCUIT_2223.s_logisimNet48 _0320_ vdd vdd vss vss gf180mcu_fd_sc_mcu7t5v0__buf_1
XFILLER_0_24_120 vdd vdd vss vss gf180mcu_fd_sc_mcu7t5v0__fill_2
X_0733_ _0268_ _0269_ vdd vdd vss vss gf180mcu_fd_sc_mcu7t5v0__buf_1