* NGSPICE file created from wrapped_qcpu.ext - technology: gf180mcuD

* Black-box entry subcircuit for gf180mcu_fd_sc_mcu7t5v0__fill_2 abstract view
.subckt gf180mcu_fd_sc_mcu7t5v0__fill_2 VDD VNW VPW VSS
.ends

* Black-box entry subcircuit for gf180mcu_fd_sc_mcu7t5v0__oai21_1 abstract view
.subckt gf180mcu_fd_sc_mcu7t5v0__oai21_1 A1 A2 B ZN VDD VNW VPW VSS
.ends

* Black-box entry subcircuit for gf180mcu_fd_sc_mcu7t5v0__buf_1 abstract view
.subckt gf180mcu_fd_sc_mcu7t5v0__buf_1 I Z VDD VNW VPW VSS
.ends

* Black-box entry subcircuit for gf180mcu_fd_sc_mcu7t5v0__antenna abstract view
.subckt gf180mcu_fd_sc_mcu7t5v0__antenna I VDD VNW VPW VSS
.ends

* Black-box entry subcircuit for gf180mcu_fd_sc_mcu7t5v0__fillcap_4 abstract view
.subckt gf180mcu_fd_sc_mcu7t5v0__fillcap_4 VDD VNW VPW VSS
.ends

* Black-box entry subcircuit for gf180mcu_fd_sc_mcu7t5v0__clkbuf_2 abstract view
.subckt gf180mcu_fd_sc_mcu7t5v0__clkbuf_2 I Z VDD VNW VPW VSS
.ends

* Black-box entry subcircuit for gf180mcu_fd_sc_mcu7t5v0__nor2_1 abstract view
.subckt gf180mcu_fd_sc_mcu7t5v0__nor2_1 A1 A2 ZN VDD VNW VPW VSS
.ends

* Black-box entry subcircuit for gf180mcu_fd_sc_mcu7t5v0__nand2_2 abstract view
.subckt gf180mcu_fd_sc_mcu7t5v0__nand2_2 A1 A2 ZN VDD VNW VPW VSS
.ends

* Black-box entry subcircuit for gf180mcu_fd_sc_mcu7t5v0__fill_1 abstract view
.subckt gf180mcu_fd_sc_mcu7t5v0__fill_1 VDD VNW VPW VSS
.ends

* Black-box entry subcircuit for gf180mcu_fd_sc_mcu7t5v0__clkinv_1 abstract view
.subckt gf180mcu_fd_sc_mcu7t5v0__clkinv_1 I ZN VDD VNW VPW VSS
.ends

* Black-box entry subcircuit for gf180mcu_fd_sc_mcu7t5v0__filltie abstract view
.subckt gf180mcu_fd_sc_mcu7t5v0__filltie VDD VSS
.ends

* Black-box entry subcircuit for gf180mcu_fd_sc_mcu7t5v0__nand3_1 abstract view
.subckt gf180mcu_fd_sc_mcu7t5v0__nand3_1 A1 A2 A3 ZN VDD VNW VPW VSS
.ends

* Black-box entry subcircuit for gf180mcu_fd_sc_mcu7t5v0__nand2_1 abstract view
.subckt gf180mcu_fd_sc_mcu7t5v0__nand2_1 A1 A2 ZN VDD VNW VPW VSS
.ends

* Black-box entry subcircuit for gf180mcu_fd_sc_mcu7t5v0__mux2_2 abstract view
.subckt gf180mcu_fd_sc_mcu7t5v0__mux2_2 I0 I1 S Z VDD VNW VPW VSS
.ends

* Black-box entry subcircuit for gf180mcu_fd_sc_mcu7t5v0__aoi21_2 abstract view
.subckt gf180mcu_fd_sc_mcu7t5v0__aoi21_2 A1 A2 B ZN VDD VNW VPW VSS
.ends

* Black-box entry subcircuit for gf180mcu_fd_sc_mcu7t5v0__fillcap_8 abstract view
.subckt gf180mcu_fd_sc_mcu7t5v0__fillcap_8 VDD VNW VPW VSS
.ends

* Black-box entry subcircuit for gf180mcu_fd_sc_mcu7t5v0__oai211_1 abstract view
.subckt gf180mcu_fd_sc_mcu7t5v0__oai211_1 A1 A2 B C ZN VDD VNW VPW VSS
.ends

* Black-box entry subcircuit for gf180mcu_fd_sc_mcu7t5v0__dffq_1 abstract view
.subckt gf180mcu_fd_sc_mcu7t5v0__dffq_1 D CLK Q VDD VNW VPW VSS
.ends

* Black-box entry subcircuit for gf180mcu_fd_sc_mcu7t5v0__clkbuf_16 abstract view
.subckt gf180mcu_fd_sc_mcu7t5v0__clkbuf_16 I Z VDD VNW VPW VSS
.ends

* Black-box entry subcircuit for gf180mcu_fd_sc_mcu7t5v0__nor3_1 abstract view
.subckt gf180mcu_fd_sc_mcu7t5v0__nor3_1 A1 A2 A3 ZN VDD VNW VPW VSS
.ends

* Black-box entry subcircuit for gf180mcu_fd_sc_mcu7t5v0__xor2_1 abstract view
.subckt gf180mcu_fd_sc_mcu7t5v0__xor2_1 A1 A2 Z VDD VNW VPW VSS
.ends

* Black-box entry subcircuit for gf180mcu_fd_sc_mcu7t5v0__aoi211_1 abstract view
.subckt gf180mcu_fd_sc_mcu7t5v0__aoi211_1 A1 A2 B C ZN VDD VNW VPW VSS
.ends

* Black-box entry subcircuit for gf180mcu_fd_sc_mcu7t5v0__inv_1 abstract view
.subckt gf180mcu_fd_sc_mcu7t5v0__inv_1 I ZN VDD VNW VPW VSS
.ends

* Black-box entry subcircuit for gf180mcu_fd_sc_mcu7t5v0__clkbuf_1 abstract view
.subckt gf180mcu_fd_sc_mcu7t5v0__clkbuf_1 I Z VDD VNW VPW VSS
.ends

* Black-box entry subcircuit for gf180mcu_fd_sc_mcu7t5v0__aoi221_2 abstract view
.subckt gf180mcu_fd_sc_mcu7t5v0__aoi221_2 A1 A2 B1 B2 C ZN VDD VNW VPW VSS
.ends

* Black-box entry subcircuit for gf180mcu_fd_sc_mcu7t5v0__aoi21_1 abstract view
.subckt gf180mcu_fd_sc_mcu7t5v0__aoi21_1 A1 A2 B ZN VDD VNW VPW VSS
.ends

* Black-box entry subcircuit for gf180mcu_fd_sc_mcu7t5v0__aoi22_1 abstract view
.subckt gf180mcu_fd_sc_mcu7t5v0__aoi22_1 A1 A2 B1 B2 ZN VDD VNW VPW VSS
.ends

* Black-box entry subcircuit for gf180mcu_fd_sc_mcu7t5v0__oai221_1 abstract view
.subckt gf180mcu_fd_sc_mcu7t5v0__oai221_1 A1 A2 B1 B2 C ZN VDD VNW VPW VSS
.ends

* Black-box entry subcircuit for gf180mcu_fd_sc_mcu7t5v0__dffq_2 abstract view
.subckt gf180mcu_fd_sc_mcu7t5v0__dffq_2 D CLK Q VDD VNW VPW VSS
.ends

* Black-box entry subcircuit for gf180mcu_fd_sc_mcu7t5v0__xnor3_1 abstract view
.subckt gf180mcu_fd_sc_mcu7t5v0__xnor3_1 A1 A2 A3 ZN VDD VNW VPW VSS
.ends

* Black-box entry subcircuit for gf180mcu_fd_sc_mcu7t5v0__or2_1 abstract view
.subckt gf180mcu_fd_sc_mcu7t5v0__or2_1 A1 A2 Z VDD VNW VPW VSS
.ends

* Black-box entry subcircuit for gf180mcu_fd_sc_mcu7t5v0__oai21_2 abstract view
.subckt gf180mcu_fd_sc_mcu7t5v0__oai21_2 A1 A2 B ZN VDD VNW VPW VSS
.ends

* Black-box entry subcircuit for gf180mcu_fd_sc_mcu7t5v0__buf_2 abstract view
.subckt gf180mcu_fd_sc_mcu7t5v0__buf_2 I Z VDD VNW VPW VSS
.ends

* Black-box entry subcircuit for gf180mcu_fd_sc_mcu7t5v0__oai211_2 abstract view
.subckt gf180mcu_fd_sc_mcu7t5v0__oai211_2 A1 A2 B C ZN VDD VNW VPW VSS
.ends

* Black-box entry subcircuit for gf180mcu_fd_sc_mcu7t5v0__oai22_1 abstract view
.subckt gf180mcu_fd_sc_mcu7t5v0__oai22_1 A1 A2 B1 B2 ZN VDD VNW VPW VSS
.ends

* Black-box entry subcircuit for gf180mcu_fd_sc_mcu7t5v0__fillcap_16 abstract view
.subckt gf180mcu_fd_sc_mcu7t5v0__fillcap_16 VDD VNW VPW VSS
.ends

* Black-box entry subcircuit for gf180mcu_fd_sc_mcu7t5v0__and3_1 abstract view
.subckt gf180mcu_fd_sc_mcu7t5v0__and3_1 A1 A2 A3 Z VDD VNW VPW VSS
.ends

* Black-box entry subcircuit for gf180mcu_fd_sc_mcu7t5v0__xnor2_1 abstract view
.subckt gf180mcu_fd_sc_mcu7t5v0__xnor2_1 A1 A2 ZN VDD VNW VPW VSS
.ends

* Black-box entry subcircuit for gf180mcu_fd_sc_mcu7t5v0__xor3_1 abstract view
.subckt gf180mcu_fd_sc_mcu7t5v0__xor3_1 A1 A2 A3 Z VDD VNW VPW VSS
.ends

* Black-box entry subcircuit for gf180mcu_fd_sc_mcu7t5v0__endcap abstract view
.subckt gf180mcu_fd_sc_mcu7t5v0__endcap VDD VSS
.ends

* Black-box entry subcircuit for gf180mcu_fd_sc_mcu7t5v0__nor3_4 abstract view
.subckt gf180mcu_fd_sc_mcu7t5v0__nor3_4 A1 A2 A3 ZN VDD VNW VPW VSS
.ends

* Black-box entry subcircuit for gf180mcu_fd_sc_mcu7t5v0__buf_3 abstract view
.subckt gf180mcu_fd_sc_mcu7t5v0__buf_3 I Z VDD VNW VPW VSS
.ends

* Black-box entry subcircuit for gf180mcu_fd_sc_mcu7t5v0__mux4_4 abstract view
.subckt gf180mcu_fd_sc_mcu7t5v0__mux4_4 I0 I1 I2 I3 S0 S1 Z VDD VNW VPW VSS
.ends

* Black-box entry subcircuit for gf180mcu_fd_sc_mcu7t5v0__nor2_2 abstract view
.subckt gf180mcu_fd_sc_mcu7t5v0__nor2_2 A1 A2 ZN VDD VNW VPW VSS
.ends

* Black-box entry subcircuit for gf180mcu_fd_sc_mcu7t5v0__aoi221_4 abstract view
.subckt gf180mcu_fd_sc_mcu7t5v0__aoi221_4 A1 A2 B1 B2 C ZN VDD VNW VPW VSS
.ends

* Black-box entry subcircuit for gf180mcu_fd_sc_mcu7t5v0__clkbuf_3 abstract view
.subckt gf180mcu_fd_sc_mcu7t5v0__clkbuf_3 I Z VDD VNW VPW VSS
.ends

* Black-box entry subcircuit for gf180mcu_fd_sc_mcu7t5v0__and2_1 abstract view
.subckt gf180mcu_fd_sc_mcu7t5v0__and2_1 A1 A2 Z VDD VNW VPW VSS
.ends

* Black-box entry subcircuit for gf180mcu_fd_sc_mcu7t5v0__aoi221_1 abstract view
.subckt gf180mcu_fd_sc_mcu7t5v0__aoi221_1 A1 A2 B1 B2 C ZN VDD VNW VPW VSS
.ends

* Black-box entry subcircuit for gf180mcu_fd_sc_mcu7t5v0__aoi211_2 abstract view
.subckt gf180mcu_fd_sc_mcu7t5v0__aoi211_2 A1 A2 B C ZN VDD VNW VPW VSS
.ends

* Black-box entry subcircuit for gf180mcu_fd_sc_mcu7t5v0__oai221_2 abstract view
.subckt gf180mcu_fd_sc_mcu7t5v0__oai221_2 A1 A2 B1 B2 C ZN VDD VNW VPW VSS
.ends

* Black-box entry subcircuit for gf180mcu_fd_sc_mcu7t5v0__nand3_2 abstract view
.subckt gf180mcu_fd_sc_mcu7t5v0__nand3_2 A1 A2 A3 ZN VDD VNW VPW VSS
.ends

* Black-box entry subcircuit for gf180mcu_fd_sc_mcu7t5v0__mux4_1 abstract view
.subckt gf180mcu_fd_sc_mcu7t5v0__mux4_1 I0 I1 I2 I3 S0 S1 Z VDD VNW VPW VSS
.ends

* Black-box entry subcircuit for gf180mcu_fd_sc_mcu7t5v0__and4_2 abstract view
.subckt gf180mcu_fd_sc_mcu7t5v0__and4_2 A1 A2 A3 A4 Z VDD VNW VPW VSS
.ends

* Black-box entry subcircuit for gf180mcu_fd_sc_mcu7t5v0__buf_8 abstract view
.subckt gf180mcu_fd_sc_mcu7t5v0__buf_8 I Z VDD VNW VPW VSS
.ends

* Black-box entry subcircuit for gf180mcu_fd_sc_mcu7t5v0__fillcap_32 abstract view
.subckt gf180mcu_fd_sc_mcu7t5v0__fillcap_32 VDD VNW VPW VSS
.ends

* Black-box entry subcircuit for gf180mcu_fd_sc_mcu7t5v0__nor4_1 abstract view
.subckt gf180mcu_fd_sc_mcu7t5v0__nor4_1 A1 A2 A3 A4 ZN VDD VNW VPW VSS
.ends

* Black-box entry subcircuit for gf180mcu_fd_sc_mcu7t5v0__clkbuf_8 abstract view
.subckt gf180mcu_fd_sc_mcu7t5v0__clkbuf_8 I Z VDD VNW VPW VSS
.ends

* Black-box entry subcircuit for gf180mcu_fd_sc_mcu7t5v0__nor2_4 abstract view
.subckt gf180mcu_fd_sc_mcu7t5v0__nor2_4 A1 A2 ZN VDD VNW VPW VSS
.ends

* Black-box entry subcircuit for gf180mcu_fd_sc_mcu7t5v0__mux4_2 abstract view
.subckt gf180mcu_fd_sc_mcu7t5v0__mux4_2 I0 I1 I2 I3 S0 S1 Z VDD VNW VPW VSS
.ends

* Black-box entry subcircuit for gf180mcu_fd_sc_mcu7t5v0__oai31_1 abstract view
.subckt gf180mcu_fd_sc_mcu7t5v0__oai31_1 A1 A2 A3 B ZN VDD VNW VPW VSS
.ends

* Black-box entry subcircuit for gf180mcu_fd_sc_mcu7t5v0__aoi211_4 abstract view
.subckt gf180mcu_fd_sc_mcu7t5v0__aoi211_4 A1 A2 B C ZN VDD VNW VPW VSS
.ends

* Black-box entry subcircuit for gf180mcu_fd_sc_mcu7t5v0__oai32_1 abstract view
.subckt gf180mcu_fd_sc_mcu7t5v0__oai32_1 A1 A2 A3 B1 B2 ZN VDD VNW VPW VSS
.ends

* Black-box entry subcircuit for gf180mcu_fd_sc_mcu7t5v0__clkinv_2 abstract view
.subckt gf180mcu_fd_sc_mcu7t5v0__clkinv_2 I ZN VDD VNW VPW VSS
.ends

* Black-box entry subcircuit for gf180mcu_fd_sc_mcu7t5v0__nand4_2 abstract view
.subckt gf180mcu_fd_sc_mcu7t5v0__nand4_2 A1 A2 A3 A4 ZN VDD VNW VPW VSS
.ends

* Black-box entry subcircuit for gf180mcu_fd_sc_mcu7t5v0__oai221_4 abstract view
.subckt gf180mcu_fd_sc_mcu7t5v0__oai221_4 A1 A2 B1 B2 C ZN VDD VNW VPW VSS
.ends

* Black-box entry subcircuit for gf180mcu_fd_sc_mcu7t5v0__aoi22_2 abstract view
.subckt gf180mcu_fd_sc_mcu7t5v0__aoi22_2 A1 A2 B1 B2 ZN VDD VNW VPW VSS
.ends

* Black-box entry subcircuit for gf180mcu_fd_sc_mcu7t5v0__nand4_1 abstract view
.subckt gf180mcu_fd_sc_mcu7t5v0__nand4_1 A1 A2 A3 A4 ZN VDD VNW VPW VSS
.ends

* Black-box entry subcircuit for gf180mcu_fd_sc_mcu7t5v0__nor4_2 abstract view
.subckt gf180mcu_fd_sc_mcu7t5v0__nor4_2 A1 A2 A3 A4 ZN VDD VNW VPW VSS
.ends

* Black-box entry subcircuit for gf180mcu_fd_sc_mcu7t5v0__and4_1 abstract view
.subckt gf180mcu_fd_sc_mcu7t5v0__and4_1 A1 A2 A3 A4 Z VDD VNW VPW VSS
.ends

* Black-box entry subcircuit for gf180mcu_fd_sc_mcu7t5v0__nor3_2 abstract view
.subckt gf180mcu_fd_sc_mcu7t5v0__nor3_2 A1 A2 A3 ZN VDD VNW VPW VSS
.ends

* Black-box entry subcircuit for gf180mcu_fd_sc_mcu7t5v0__aoi21_4 abstract view
.subckt gf180mcu_fd_sc_mcu7t5v0__aoi21_4 A1 A2 B ZN VDD VNW VPW VSS
.ends

* Black-box entry subcircuit for gf180mcu_fd_sc_mcu7t5v0__nand3_4 abstract view
.subckt gf180mcu_fd_sc_mcu7t5v0__nand3_4 A1 A2 A3 ZN VDD VNW VPW VSS
.ends

* Black-box entry subcircuit for gf180mcu_fd_sc_mcu7t5v0__xnor2_2 abstract view
.subckt gf180mcu_fd_sc_mcu7t5v0__xnor2_2 A1 A2 ZN VDD VNW VPW VSS
.ends

* Black-box entry subcircuit for gf180mcu_fd_sc_mcu7t5v0__nand4_4 abstract view
.subckt gf180mcu_fd_sc_mcu7t5v0__nand4_4 A1 A2 A3 A4 ZN VDD VNW VPW VSS
.ends

* Black-box entry subcircuit for gf180mcu_fd_sc_mcu7t5v0__nor4_4 abstract view
.subckt gf180mcu_fd_sc_mcu7t5v0__nor4_4 A1 A2 A3 A4 ZN VDD VNW VPW VSS
.ends

* Black-box entry subcircuit for gf180mcu_fd_sc_mcu7t5v0__and2_2 abstract view
.subckt gf180mcu_fd_sc_mcu7t5v0__and2_2 A1 A2 Z VDD VNW VPW VSS
.ends

* Black-box entry subcircuit for gf180mcu_fd_sc_mcu7t5v0__or2_2 abstract view
.subckt gf180mcu_fd_sc_mcu7t5v0__or2_2 A1 A2 Z VDD VNW VPW VSS
.ends

* Black-box entry subcircuit for gf180mcu_fd_sc_mcu7t5v0__aoi22_4 abstract view
.subckt gf180mcu_fd_sc_mcu7t5v0__aoi22_4 A1 A2 B1 B2 ZN VDD VNW VPW VSS
.ends

* Black-box entry subcircuit for gf180mcu_fd_sc_mcu7t5v0__inv_2 abstract view
.subckt gf180mcu_fd_sc_mcu7t5v0__inv_2 I ZN VDD VNW VPW VSS
.ends

* Black-box entry subcircuit for gf180mcu_fd_sc_mcu7t5v0__clkbuf_4 abstract view
.subckt gf180mcu_fd_sc_mcu7t5v0__clkbuf_4 I Z VDD VNW VPW VSS
.ends

* Black-box entry subcircuit for gf180mcu_fd_sc_mcu7t5v0__oai211_4 abstract view
.subckt gf180mcu_fd_sc_mcu7t5v0__oai211_4 A1 A2 B C ZN VDD VNW VPW VSS
.ends

* Black-box entry subcircuit for gf180mcu_fd_sc_mcu7t5v0__nand2_4 abstract view
.subckt gf180mcu_fd_sc_mcu7t5v0__nand2_4 A1 A2 ZN VDD VNW VPW VSS
.ends

* Black-box entry subcircuit for gf180mcu_fd_sc_mcu7t5v0__oai21_4 abstract view
.subckt gf180mcu_fd_sc_mcu7t5v0__oai21_4 A1 A2 B ZN VDD VNW VPW VSS
.ends

* Black-box entry subcircuit for gf180mcu_fd_sc_mcu7t5v0__or3_1 abstract view
.subckt gf180mcu_fd_sc_mcu7t5v0__or3_1 A1 A2 A3 Z VDD VNW VPW VSS
.ends

* Black-box entry subcircuit for gf180mcu_fd_sc_mcu7t5v0__oai22_2 abstract view
.subckt gf180mcu_fd_sc_mcu7t5v0__oai22_2 A1 A2 B1 B2 ZN VDD VNW VPW VSS
.ends

* Black-box entry subcircuit for gf180mcu_fd_sc_mcu7t5v0__inv_3 abstract view
.subckt gf180mcu_fd_sc_mcu7t5v0__inv_3 I ZN VDD VNW VPW VSS
.ends

* Black-box entry subcircuit for gf180mcu_fd_sc_mcu7t5v0__oai22_4 abstract view
.subckt gf180mcu_fd_sc_mcu7t5v0__oai22_4 A1 A2 B1 B2 ZN VDD VNW VPW VSS
.ends

* Black-box entry subcircuit for gf180mcu_fd_sc_mcu7t5v0__clkinv_3 abstract view
.subckt gf180mcu_fd_sc_mcu7t5v0__clkinv_3 I ZN VDD VNW VPW VSS
.ends

* Black-box entry subcircuit for gf180mcu_fd_sc_mcu7t5v0__oai32_4 abstract view
.subckt gf180mcu_fd_sc_mcu7t5v0__oai32_4 A1 A2 A3 B1 B2 ZN VDD VNW VPW VSS
.ends

* Black-box entry subcircuit for gf180mcu_fd_sc_mcu7t5v0__oai31_2 abstract view
.subckt gf180mcu_fd_sc_mcu7t5v0__oai31_2 A1 A2 A3 B ZN VDD VNW VPW VSS
.ends

* Black-box entry subcircuit for gf180mcu_fd_sc_mcu7t5v0__xor3_2 abstract view
.subckt gf180mcu_fd_sc_mcu7t5v0__xor3_2 A1 A2 A3 Z VDD VNW VPW VSS
.ends

* Black-box entry subcircuit for gf180mcu_fd_sc_mcu7t5v0__or4_2 abstract view
.subckt gf180mcu_fd_sc_mcu7t5v0__or4_2 A1 A2 A3 A4 Z VDD VNW VPW VSS
.ends

* Black-box entry subcircuit for gf180mcu_fd_sc_mcu7t5v0__tiel abstract view
.subckt gf180mcu_fd_sc_mcu7t5v0__tiel ZN VDD VNW VPW VSS
.ends

* Black-box entry subcircuit for gf180mcu_fd_sc_mcu7t5v0__or4_1 abstract view
.subckt gf180mcu_fd_sc_mcu7t5v0__or4_1 A1 A2 A3 A4 Z VDD VNW VPW VSS
.ends

* Black-box entry subcircuit for gf180mcu_fd_sc_mcu7t5v0__buf_4 abstract view
.subckt gf180mcu_fd_sc_mcu7t5v0__buf_4 I Z VDD VNW VPW VSS
.ends

* Black-box entry subcircuit for gf180mcu_fd_sc_mcu7t5v0__clkinv_4 abstract view
.subckt gf180mcu_fd_sc_mcu7t5v0__clkinv_4 I ZN VDD VNW VPW VSS
.ends

* Black-box entry subcircuit for gf180mcu_fd_sc_mcu7t5v0__tieh abstract view
.subckt gf180mcu_fd_sc_mcu7t5v0__tieh Z VDD VNW VPW VSS
.ends

* Black-box entry subcircuit for gf180mcu_fd_sc_mcu7t5v0__aoi222_2 abstract view
.subckt gf180mcu_fd_sc_mcu7t5v0__aoi222_2 A1 A2 B1 B2 C1 C2 ZN VDD VNW VPW VSS
.ends

* Black-box entry subcircuit for gf180mcu_fd_sc_mcu7t5v0__oai32_2 abstract view
.subckt gf180mcu_fd_sc_mcu7t5v0__oai32_2 A1 A2 A3 B1 B2 ZN VDD VNW VPW VSS
.ends

* Black-box entry subcircuit for gf180mcu_fd_sc_mcu7t5v0__oai31_4 abstract view
.subckt gf180mcu_fd_sc_mcu7t5v0__oai31_4 A1 A2 A3 B ZN VDD VNW VPW VSS
.ends

* Black-box entry subcircuit for gf180mcu_fd_sc_mcu7t5v0__oai33_1 abstract view
.subckt gf180mcu_fd_sc_mcu7t5v0__oai33_1 A1 A2 A3 B1 B2 B3 ZN VDD VNW VPW VSS
.ends

.subckt wrapped_qcpu custom_settings[0] custom_settings[10] custom_settings[11] custom_settings[12]
+ custom_settings[13] custom_settings[14] custom_settings[15] custom_settings[16]
+ custom_settings[17] custom_settings[18] custom_settings[19] custom_settings[1] custom_settings[20]
+ custom_settings[21] custom_settings[22] custom_settings[23] custom_settings[24]
+ custom_settings[25] custom_settings[26] custom_settings[27] custom_settings[28]
+ custom_settings[29] custom_settings[2] custom_settings[30] custom_settings[31] custom_settings[3]
+ custom_settings[4] custom_settings[5] custom_settings[6] custom_settings[7] custom_settings[8]
+ custom_settings[9] io_in[0] io_in[10] io_in[11] io_in[12] io_in[13] io_in[14] io_in[15]
+ io_in[16] io_in[17] io_in[18] io_in[19] io_in[1] io_in[20] io_in[21] io_in[22] io_in[23]
+ io_in[24] io_in[25] io_in[26] io_in[27] io_in[28] io_in[29] io_in[2] io_in[30] io_in[31]
+ io_in[32] io_in[3] io_in[4] io_in[5] io_in[6] io_in[7] io_in[8] io_in[9] io_oeb[0]
+ io_oeb[10] io_oeb[11] io_oeb[12] io_oeb[13] io_oeb[14] io_oeb[15] io_oeb[16] io_oeb[17]
+ io_oeb[18] io_oeb[19] io_oeb[1] io_oeb[20] io_oeb[21] io_oeb[23] io_oeb[24] io_oeb[25]
+ io_oeb[26] io_oeb[27] io_oeb[28] io_oeb[29] io_oeb[2] io_oeb[30] io_oeb[31] io_oeb[32]
+ io_oeb[3] io_oeb[4] io_oeb[5] io_oeb[6] io_oeb[7] io_oeb[8] io_oeb[9] io_out[0]
+ io_out[10] io_out[11] io_out[12] io_out[13] io_out[14] io_out[15] io_out[16] io_out[17]
+ io_out[18] io_out[19] io_out[1] io_out[20] io_out[21] io_out[22] io_out[24] io_out[25]
+ io_out[27] io_out[28] io_out[29] io_out[2] io_out[30] io_out[31] io_out[32] io_out[3]
+ io_out[4] io_out[5] io_out[6] io_out[7] io_out[8] io_out[9] rst_n sram_addr[0] sram_addr[1]
+ sram_addr[2] sram_addr[3] sram_addr[4] sram_addr[5] sram_gwe sram_in[0] sram_in[1]
+ sram_in[2] sram_in[3] sram_in[4] sram_in[5] sram_in[6] sram_in[7] sram_out[0] sram_out[1]
+ sram_out[2] sram_out[3] sram_out[4] sram_out[5] sram_out[6] sram_out[7] vdd vss
+ wb_clk_i io_oeb[22] io_out[26] io_out[23]
XFILLER_0_94_55 vdd vdd vss vss gf180mcu_fd_sc_mcu7t5v0__fill_2
X_05903_ cpu.timer_div\[1\] _01407_ _01182_ _01408_ vdd vdd vss vss gf180mcu_fd_sc_mcu7t5v0__oai21_1
X_09671_ _04686_ _04681_ _04698_ _04699_ vdd vdd vss vss gf180mcu_fd_sc_mcu7t5v0__oai21_1
X_06883_ cpu.PC\[4\] _02381_ vdd vdd vss vss gf180mcu_fd_sc_mcu7t5v0__buf_1
XANTENNA__07534__A1 cpu.regs\[11\]\[1\] vdd vdd vss vss gf180mcu_fd_sc_mcu7t5v0__antenna
XFILLER_0_118_95 vdd vdd vss vss gf180mcu_fd_sc_mcu7t5v0__fillcap_4
X_08622_ _02772_ _03783_ vdd vdd vss vss gf180mcu_fd_sc_mcu7t5v0__buf_1
XANTENNA__06888__A3 _02385_ vdd vdd vss vss gf180mcu_fd_sc_mcu7t5v0__antenna
X_05834_ _01339_ _01340_ vdd vdd vss vss gf180mcu_fd_sc_mcu7t5v0__clkbuf_2
X_08553_ _03727_ _03735_ _00336_ vdd vdd vss vss gf180mcu_fd_sc_mcu7t5v0__nor2_1
X_05765_ _01269_ _01270_ _01271_ vdd vdd vss vss gf180mcu_fd_sc_mcu7t5v0__nand2_2
XFILLER_0_77_634 vdd vdd vss vss gf180mcu_fd_sc_mcu7t5v0__fill_1
X_08484_ _03672_ _00330_ vdd vdd vss vss gf180mcu_fd_sc_mcu7t5v0__clkinv_1
X_07504_ _02916_ _02917_ vdd vdd vss vss gf180mcu_fd_sc_mcu7t5v0__clkbuf_2
X_07435_ _02867_ _02868_ vdd vdd vss vss gf180mcu_fd_sc_mcu7t5v0__buf_1
X_05696_ _01201_ _01202_ vdd vdd vss vss gf180mcu_fd_sc_mcu7t5v0__clkbuf_2
XTAP_TAPCELL_ROW_81_1226 vdd vss gf180mcu_fd_sc_mcu7t5v0__filltie
XFILLER_0_76_177 vdd vdd vss vss gf180mcu_fd_sc_mcu7t5v0__fill_2
XFILLER_0_65_818 vdd vdd vss vss gf180mcu_fd_sc_mcu7t5v0__fill_2
XFILLER_0_64_317 vdd vdd vss vss gf180mcu_fd_sc_mcu7t5v0__fillcap_4
XFILLER_0_57_391 vdd vdd vss vss gf180mcu_fd_sc_mcu7t5v0__fillcap_4
XFILLER_0_45_531 vdd vdd vss vss gf180mcu_fd_sc_mcu7t5v0__fill_2
XTAP_TAPCELL_ROW_33_651 vdd vss gf180mcu_fd_sc_mcu7t5v0__filltie
XFILLER_0_91_158 vdd vdd vss vss gf180mcu_fd_sc_mcu7t5v0__fillcap_4
XFILLER_0_72_350 vdd vdd vss vss gf180mcu_fd_sc_mcu7t5v0__fill_1
XTAP_TAPCELL_ROW_61_993 vdd vss gf180mcu_fd_sc_mcu7t5v0__filltie
X_07366_ _02791_ _02804_ _02805_ vdd vdd vss vss gf180mcu_fd_sc_mcu7t5v0__nor2_1
X_09105_ _04150_ _04160_ _04161_ _00462_ vdd vdd vss vss gf180mcu_fd_sc_mcu7t5v0__nand3_1
X_06317_ cpu.timer_div\[5\] _01184_ _01818_ vdd vdd vss vss gf180mcu_fd_sc_mcu7t5v0__nand2_1
XFILLER_0_72_383 vdd vdd vss vss gf180mcu_fd_sc_mcu7t5v0__fill_2
X_07297_ _02748_ _02750_ vdd vdd vss vss gf180mcu_fd_sc_mcu7t5v0__buf_1
XFILLER_0_102_102 vdd vdd vss vss gf180mcu_fd_sc_mcu7t5v0__fill_1
X_09036_ _00591_ _02561_ _04102_ _04109_ vdd vdd vss vss gf180mcu_fd_sc_mcu7t5v0__mux2_2
X_06248_ _01657_ _01659_ _01749_ _01750_ vdd vdd vss vss gf180mcu_fd_sc_mcu7t5v0__aoi21_2
XFILLER_0_32_247 vdd vdd vss vss gf180mcu_fd_sc_mcu7t5v0__fillcap_8
XTAP_TAPCELL_ROW_79_1199 vdd vss gf180mcu_fd_sc_mcu7t5v0__filltie
XFILLER_0_60_589 vdd vdd vss vss gf180mcu_fd_sc_mcu7t5v0__fill_1
XFILLER_0_4_193 vdd vdd vss vss gf180mcu_fd_sc_mcu7t5v0__fillcap_8
XANTENNA__09062__I1 _03090_ vdd vdd vss vss gf180mcu_fd_sc_mcu7t5v0__antenna
XFILLER_0_41_792 vdd vdd vss vss gf180mcu_fd_sc_mcu7t5v0__fill_1
XFILLER_0_40_280 vdd vdd vss vss gf180mcu_fd_sc_mcu7t5v0__fill_2
XFILLER_0_13_472 vdd vdd vss vss gf180mcu_fd_sc_mcu7t5v0__fill_2
X_06179_ _01161_ net92 _01682_ vdd vdd vss vss gf180mcu_fd_sc_mcu7t5v0__nand2_1
XTAP_TAPCELL_ROW_92_1366 vdd vss gf180mcu_fd_sc_mcu7t5v0__filltie
XTAP_TAPCELL_ROW_92_1355 vdd vss gf180mcu_fd_sc_mcu7t5v0__filltie
X_09938_ cpu.PORTA_DDR\[7\] _04899_ _04908_ _04904_ _04909_ vdd vdd vss vss gf180mcu_fd_sc_mcu7t5v0__oai211_1
XTAP_TAPCELL_ROW_5_321 vdd vss gf180mcu_fd_sc_mcu7t5v0__filltie
X_09869_ _04846_ _04858_ vdd vdd vss vss gf180mcu_fd_sc_mcu7t5v0__buf_1
XANTENNA__07525__A1 cpu.regs\[12\]\[7\] vdd vdd vss vss gf180mcu_fd_sc_mcu7t5v0__antenna
XFILLER_0_99_269 vdd vdd vss vss gf180mcu_fd_sc_mcu7t5v0__fill_2
XANTENNA__09278__A1 _02611_ vdd vdd vss vss gf180mcu_fd_sc_mcu7t5v0__antenna
XANTENNA_output37_I net37 vdd vdd vss vss gf180mcu_fd_sc_mcu7t5v0__antenna
XFILLER_0_68_667 vdd vdd vss vss gf180mcu_fd_sc_mcu7t5v0__fillcap_8
XANTENNA_clkbuf_leaf_104_wb_clk_i_I clknet_4_3_0_wb_clk_i vdd vdd vss vss gf180mcu_fd_sc_mcu7t5v0__antenna
XFILLER_0_68_689 vdd vdd vss vss gf180mcu_fd_sc_mcu7t5v0__fill_2
XTAP_TAPCELL_ROW_101_1473 vdd vss gf180mcu_fd_sc_mcu7t5v0__filltie
XFILLER_0_82_169 vdd vdd vss vss gf180mcu_fd_sc_mcu7t5v0__fillcap_4
XFILLER_0_70_309 vdd vdd vss vss gf180mcu_fd_sc_mcu7t5v0__fillcap_4
XFILLER_0_36_531 vdd vdd vss vss gf180mcu_fd_sc_mcu7t5v0__fill_1
X_10575_ _00513_ clknet_leaf_70_wb_clk_i cpu.ROM_spi_cycle\[4\] vdd vdd vss vss gf180mcu_fd_sc_mcu7t5v0__dffq_1
XFILLER_0_23_214 vdd vdd vss vss gf180mcu_fd_sc_mcu7t5v0__fill_1
XFILLER_0_51_556 vdd vdd vss vss gf180mcu_fd_sc_mcu7t5v0__fill_2
XANTENNA__06264__B2 _01461_ vdd vdd vss vss gf180mcu_fd_sc_mcu7t5v0__antenna
XANTENNA__06264__A1 _01465_ vdd vdd vss vss gf180mcu_fd_sc_mcu7t5v0__antenna
XFILLER_0_2_119 vdd vdd vss vss gf180mcu_fd_sc_mcu7t5v0__fillcap_4
XTAP_TAPCELL_ROW_11_389 vdd vss gf180mcu_fd_sc_mcu7t5v0__filltie
XANTENNA__10060__A2 _05012_ vdd vdd vss vss gf180mcu_fd_sc_mcu7t5v0__antenna
XANTENNA__05311__I0 cpu.regs\[8\]\[2\] vdd vdd vss vss gf180mcu_fd_sc_mcu7t5v0__antenna
XANTENNA__08005__A2 _03288_ vdd vdd vss vss gf180mcu_fd_sc_mcu7t5v0__antenna
XANTENNA__06016__A1 _01054_ vdd vdd vss vss gf180mcu_fd_sc_mcu7t5v0__antenna
XANTENNA__07764__A1 net20 vdd vdd vss vss gf180mcu_fd_sc_mcu7t5v0__antenna
Xclkbuf_leaf_60_wb_clk_i clknet_4_12_0_wb_clk_i clknet_leaf_60_wb_clk_i vdd vdd vss
+ vss gf180mcu_fd_sc_mcu7t5v0__clkbuf_16
X_10009_ _04718_ _02040_ _02043_ _04973_ vdd vdd vss vss gf180mcu_fd_sc_mcu7t5v0__nor3_1
XFILLER_0_64_69 vdd vdd vss vss gf180mcu_fd_sc_mcu7t5v0__fillcap_4
XFILLER_0_59_601 vdd vdd vss vss gf180mcu_fd_sc_mcu7t5v0__fill_2
XFILLER_0_58_100 vdd vdd vss vss gf180mcu_fd_sc_mcu7t5v0__fillcap_4
X_05550_ cpu.IO_addr_buff\[4\] _01056_ vdd vdd vss vss gf180mcu_fd_sc_mcu7t5v0__clkbuf_2
XFILLER_0_59_656 vdd vdd vss vss gf180mcu_fd_sc_mcu7t5v0__fill_1
XTAP_TAPCELL_ROW_19_489 vdd vss gf180mcu_fd_sc_mcu7t5v0__filltie
XANTENNA__05451__I _00898_ vdd vdd vss vss gf180mcu_fd_sc_mcu7t5v0__antenna
XFILLER_0_74_637 vdd vdd vss vss gf180mcu_fd_sc_mcu7t5v0__fill_2
X_05481_ _00769_ _00989_ _00990_ vdd vdd vss vss gf180mcu_fd_sc_mcu7t5v0__xor2_1
XFILLER_0_46_317 vdd vdd vss vss gf180mcu_fd_sc_mcu7t5v0__fillcap_4
XFILLER_0_27_520 vdd vdd vss vss gf180mcu_fd_sc_mcu7t5v0__fill_1
XFILLER_0_104_75 vdd vdd vss vss gf180mcu_fd_sc_mcu7t5v0__fill_2
X_07220_ cpu.timer_capture\[1\] _02674_ _02686_ _02687_ _02688_ vdd vdd vss vss gf180mcu_fd_sc_mcu7t5v0__oai211_1
XFILLER_0_73_158 vdd vdd vss vss gf180mcu_fd_sc_mcu7t5v0__fill_2
XFILLER_0_6_425 vdd vdd vss vss gf180mcu_fd_sc_mcu7t5v0__fill_2
XFILLER_0_27_531 vdd vdd vss vss gf180mcu_fd_sc_mcu7t5v0__fillcap_4
XFILLER_0_27_553 vdd vdd vss vss gf180mcu_fd_sc_mcu7t5v0__fill_1
XTAP_TAPCELL_ROW_30_621 vdd vss gf180mcu_fd_sc_mcu7t5v0__filltie
X_07151_ _02613_ _02622_ _02627_ _02628_ _00041_ vdd vdd vss vss gf180mcu_fd_sc_mcu7t5v0__aoi211_1
XANTENNA__08244__A2 _03451_ vdd vdd vss vss gf180mcu_fd_sc_mcu7t5v0__antenna
XANTENNA__09441__A1 _02418_ vdd vdd vss vss gf180mcu_fd_sc_mcu7t5v0__antenna
XANTENNA__06255__A1 _01139_ vdd vdd vss vss gf180mcu_fd_sc_mcu7t5v0__antenna
X_06102_ cpu.br_rel_dest\[3\] _01605_ vdd vdd vss vss gf180mcu_fd_sc_mcu7t5v0__inv_1
XFILLER_0_89_99 vdd vdd vss vss gf180mcu_fd_sc_mcu7t5v0__fill_2
X_07082_ _02569_ _00031_ vdd vdd vss vss gf180mcu_fd_sc_mcu7t5v0__clkbuf_1
XANTENNA__09807__B net89 vdd vdd vss vss gf180mcu_fd_sc_mcu7t5v0__antenna
X_06033_ _01498_ _01173_ _01535_ _01536_ _01259_ _01537_ vdd vdd vss vss gf180mcu_fd_sc_mcu7t5v0__aoi221_2
XFILLER_0_2_653 vdd vdd vss vss gf180mcu_fd_sc_mcu7t5v0__fill_2
X_07984_ _03280_ _00222_ vdd vdd vss vss gf180mcu_fd_sc_mcu7t5v0__clkinv_1
X_09723_ _00662_ _04740_ _04722_ _04741_ vdd vdd vss vss gf180mcu_fd_sc_mcu7t5v0__aoi21_2
X_06935_ _02363_ _02365_ _02421_ _02431_ vdd vdd vss vss gf180mcu_fd_sc_mcu7t5v0__nand3_1
XANTENNA__05081__I2 cpu.regs\[2\]\[6\] vdd vdd vss vss gf180mcu_fd_sc_mcu7t5v0__antenna
X_09654_ _04685_ _00487_ vdd vdd vss vss gf180mcu_fd_sc_mcu7t5v0__clkinv_1
X_06866_ _02090_ _02095_ _02364_ vdd vdd vss vss gf180mcu_fd_sc_mcu7t5v0__nand2_1
XTAP_TAPCELL_ROW_38_710 vdd vss gf180mcu_fd_sc_mcu7t5v0__filltie
XFILLER_0_97_729 vdd vdd vss vss gf180mcu_fd_sc_mcu7t5v0__fill_1
X_08605_ _03768_ _03770_ _00353_ vdd vdd vss vss gf180mcu_fd_sc_mcu7t5v0__nor2_1
X_05817_ _00950_ _01323_ vdd vdd vss vss gf180mcu_fd_sc_mcu7t5v0__clkbuf_2
XFILLER_0_96_239 vdd vdd vss vss gf180mcu_fd_sc_mcu7t5v0__fill_2
X_09585_ _04596_ _04618_ _00690_ _00485_ vdd vdd vss vss gf180mcu_fd_sc_mcu7t5v0__aoi21_1
X_06797_ _02288_ _00994_ _02295_ vdd vdd vss vss gf180mcu_fd_sc_mcu7t5v0__nand2_1
X_05748_ _01253_ _01254_ vdd vdd vss vss gf180mcu_fd_sc_mcu7t5v0__buf_1
X_08536_ _03695_ _03696_ _03714_ _03721_ _03722_ vdd vdd vss vss gf180mcu_fd_sc_mcu7t5v0__aoi22_1
XFILLER_0_38_807 vdd vdd vss vss gf180mcu_fd_sc_mcu7t5v0__fill_2
X_05679_ _01184_ _01185_ vdd vdd vss vss gf180mcu_fd_sc_mcu7t5v0__buf_1
X_08467_ _02772_ _03660_ vdd vdd vss vss gf180mcu_fd_sc_mcu7t5v0__buf_1
XFILLER_0_107_216 vdd vdd vss vss gf180mcu_fd_sc_mcu7t5v0__fill_2
X_07418_ _02840_ cpu.uart.receive_div_counter\[15\] _02846_ _02847_ _02850_ _02851_
+ vdd vdd vss vss gf180mcu_fd_sc_mcu7t5v0__oai221_1
X_08398_ _03609_ _03610_ vdd vdd vss vss gf180mcu_fd_sc_mcu7t5v0__buf_1
XANTENNA__08672__I _03816_ vdd vdd vss vss gf180mcu_fd_sc_mcu7t5v0__antenna
XANTENNA__06494__A1 _00646_ vdd vdd vss vss gf180mcu_fd_sc_mcu7t5v0__antenna
XFILLER_0_116_750 vdd vdd vss vss gf180mcu_fd_sc_mcu7t5v0__fill_2
XFILLER_0_18_564 vdd vdd vss vss gf180mcu_fd_sc_mcu7t5v0__fillcap_8
XFILLER_0_18_597 vdd vdd vss vss gf180mcu_fd_sc_mcu7t5v0__fill_2
X_07349_ _02786_ _02327_ _02789_ _02790_ vdd vdd vss vss gf180mcu_fd_sc_mcu7t5v0__mux2_2
XFILLER_0_115_260 vdd vdd vss vss gf180mcu_fd_sc_mcu7t5v0__fill_2
XFILLER_0_72_191 vdd vdd vss vss gf180mcu_fd_sc_mcu7t5v0__fill_2
XFILLER_0_60_331 vdd vdd vss vss gf180mcu_fd_sc_mcu7t5v0__fill_2
XFILLER_0_33_523 vdd vdd vss vss gf180mcu_fd_sc_mcu7t5v0__fill_2
XFILLER_0_33_545 vdd vdd vss vss gf180mcu_fd_sc_mcu7t5v0__fill_2
XFILLER_0_115_282 vdd vdd vss vss gf180mcu_fd_sc_mcu7t5v0__fillcap_4
X_10360_ _00299_ clknet_leaf_55_wb_clk_i cpu.orig_IO_addr_buff\[2\] vdd vdd vss vss
+ gf180mcu_fd_sc_mcu7t5v0__dffq_1
XFILLER_0_60_364 vdd vdd vss vss gf180mcu_fd_sc_mcu7t5v0__fill_1
X_10291_ _00230_ clknet_leaf_44_wb_clk_i cpu.uart.dout\[5\] vdd vdd vss vss gf180mcu_fd_sc_mcu7t5v0__dffq_1
X_09019_ _04095_ _00802_ _04096_ vdd vdd vss vss gf180mcu_fd_sc_mcu7t5v0__nand2_1
XFILLER_0_103_488 vdd vdd vss vss gf180mcu_fd_sc_mcu7t5v0__fill_2
XANTENNA__09499__A1 _04209_ vdd vdd vss vss gf180mcu_fd_sc_mcu7t5v0__antenna
XANTENNA__05221__A2 _00756_ vdd vdd vss vss gf180mcu_fd_sc_mcu7t5v0__antenna
XFILLER_0_88_718 vdd vdd vss vss gf180mcu_fd_sc_mcu7t5v0__fillcap_4
XANTENNA__07349__I1 _02327_ vdd vdd vss vss gf180mcu_fd_sc_mcu7t5v0__antenna
XFILLER_0_68_453 vdd vdd vss vss gf180mcu_fd_sc_mcu7t5v0__fill_2
XTAP_TAPCELL_ROW_16_448 vdd vss gf180mcu_fd_sc_mcu7t5v0__filltie
XTAP_TAPCELL_ROW_44_779 vdd vss gf180mcu_fd_sc_mcu7t5v0__filltie
XFILLER_0_28_317 vdd vdd vss vss gf180mcu_fd_sc_mcu7t5v0__fill_2
XFILLER_0_56_659 vdd vdd vss vss gf180mcu_fd_sc_mcu7t5v0__fill_2
XANTENNA__06485__A1 cpu.toggle_top\[15\] vdd vdd vss vss gf180mcu_fd_sc_mcu7t5v0__antenna
XFILLER_0_83_489 vdd vdd vss vss gf180mcu_fd_sc_mcu7t5v0__fill_1
XFILLER_0_24_501 vdd vdd vss vss gf180mcu_fd_sc_mcu7t5v0__fill_2
XFILLER_0_107_772 vdd vdd vss vss gf180mcu_fd_sc_mcu7t5v0__fill_2
XANTENNA__07198__I _01295_ vdd vdd vss vss gf180mcu_fd_sc_mcu7t5v0__antenna
XANTENNA__09423__A1 _03614_ vdd vdd vss vss gf180mcu_fd_sc_mcu7t5v0__antenna
X_10627_ _00565_ clknet_leaf_0_wb_clk_i cpu.regs\[15\]\[7\] vdd vdd vss vss gf180mcu_fd_sc_mcu7t5v0__dffq_1
X_10558_ _00496_ clknet_leaf_74_wb_clk_i cpu.startup_cycle\[3\] vdd vdd vss vss gf180mcu_fd_sc_mcu7t5v0__dffq_1
XFILLER_0_106_260 vdd vdd vss vss gf180mcu_fd_sc_mcu7t5v0__fill_2
XTAP_TAPCELL_ROW_114_1620 vdd vss gf180mcu_fd_sc_mcu7t5v0__filltie
X_10489_ _00427_ clknet_leaf_49_wb_clk_i cpu.uart.divisor\[13\] vdd vdd vss vss gf180mcu_fd_sc_mcu7t5v0__dffq_2
XFILLER_0_59_69 vdd vdd vss vss gf180mcu_fd_sc_mcu7t5v0__fill_1
XANTENNA__06004__A4 _01243_ vdd vdd vss vss gf180mcu_fd_sc_mcu7t5v0__antenna
XANTENNA__05446__I _00955_ vdd vdd vss vss gf180mcu_fd_sc_mcu7t5v0__antenna
X_06720_ _02216_ _02217_ _02179_ _02218_ vdd vdd vss vss gf180mcu_fd_sc_mcu7t5v0__xnor3_1