* NGSPICE file created from wrapped_mc14500.ext - technology: gf180mcuD

* Black-box entry subcircuit for gf180mcu_fd_sc_mcu7t5v0__antenna abstract view
.subckt gf180mcu_fd_sc_mcu7t5v0__antenna I VDD VNW VPW VSS
.ends

* Black-box entry subcircuit for gf180mcu_fd_sc_mcu7t5v0__filltie abstract view
.subckt gf180mcu_fd_sc_mcu7t5v0__filltie VDD VSS
.ends

* Black-box entry subcircuit for gf180mcu_fd_sc_mcu7t5v0__fill_1 abstract view
.subckt gf180mcu_fd_sc_mcu7t5v0__fill_1 VDD VNW VPW VSS
.ends

* Black-box entry subcircuit for gf180mcu_fd_sc_mcu7t5v0__oai21_1 abstract view
.subckt gf180mcu_fd_sc_mcu7t5v0__oai21_1 A1 A2 B ZN VDD VNW VPW VSS
.ends

* Black-box entry subcircuit for gf180mcu_fd_sc_mcu7t5v0__fill_2 abstract view
.subckt gf180mcu_fd_sc_mcu7t5v0__fill_2 VDD VNW VPW VSS
.ends

* Black-box entry subcircuit for gf180mcu_fd_sc_mcu7t5v0__buf_1 abstract view
.subckt gf180mcu_fd_sc_mcu7t5v0__buf_1 I Z VDD VNW VPW VSS
.ends

* Black-box entry subcircuit for gf180mcu_fd_sc_mcu7t5v0__and3_1 abstract view
.subckt gf180mcu_fd_sc_mcu7t5v0__and3_1 A1 A2 A3 Z VDD VNW VPW VSS
.ends

* Black-box entry subcircuit for gf180mcu_fd_sc_mcu7t5v0__fillcap_4 abstract view
.subckt gf180mcu_fd_sc_mcu7t5v0__fillcap_4 VDD VNW VPW VSS
.ends

* Black-box entry subcircuit for gf180mcu_fd_sc_mcu7t5v0__nand3_2 abstract view
.subckt gf180mcu_fd_sc_mcu7t5v0__nand3_2 A1 A2 A3 ZN VDD VNW VPW VSS
.ends

* Black-box entry subcircuit for gf180mcu_fd_sc_mcu7t5v0__nand2_1 abstract view
.subckt gf180mcu_fd_sc_mcu7t5v0__nand2_1 A1 A2 ZN VDD VNW VPW VSS
.ends

* Black-box entry subcircuit for gf180mcu_fd_sc_mcu7t5v0__aoi21_1 abstract view
.subckt gf180mcu_fd_sc_mcu7t5v0__aoi21_1 A1 A2 B ZN VDD VNW VPW VSS
.ends

* Black-box entry subcircuit for gf180mcu_fd_sc_mcu7t5v0__fillcap_8 abstract view
.subckt gf180mcu_fd_sc_mcu7t5v0__fillcap_8 VDD VNW VPW VSS
.ends

* Black-box entry subcircuit for gf180mcu_fd_sc_mcu7t5v0__dffq_1 abstract view
.subckt gf180mcu_fd_sc_mcu7t5v0__dffq_1 D CLK Q VDD VNW VPW VSS
.ends

* Black-box entry subcircuit for gf180mcu_fd_sc_mcu7t5v0__clkbuf_1 abstract view
.subckt gf180mcu_fd_sc_mcu7t5v0__clkbuf_1 I Z VDD VNW VPW VSS
.ends

* Black-box entry subcircuit for gf180mcu_fd_sc_mcu7t5v0__nand3_1 abstract view
.subckt gf180mcu_fd_sc_mcu7t5v0__nand3_1 A1 A2 A3 ZN VDD VNW VPW VSS
.ends

* Black-box entry subcircuit for gf180mcu_fd_sc_mcu7t5v0__buf_8 abstract view
.subckt gf180mcu_fd_sc_mcu7t5v0__buf_8 I Z VDD VNW VPW VSS
.ends

* Black-box entry subcircuit for gf180mcu_fd_sc_mcu7t5v0__endcap abstract view
.subckt gf180mcu_fd_sc_mcu7t5v0__endcap VDD VSS
.ends

* Black-box entry subcircuit for gf180mcu_fd_sc_mcu7t5v0__dffq_2 abstract view
.subckt gf180mcu_fd_sc_mcu7t5v0__dffq_2 D CLK Q VDD VNW VPW VSS
.ends

* Black-box entry subcircuit for gf180mcu_fd_sc_mcu7t5v0__fillcap_16 abstract view
.subckt gf180mcu_fd_sc_mcu7t5v0__fillcap_16 VDD VNW VPW VSS
.ends

* Black-box entry subcircuit for gf180mcu_fd_sc_mcu7t5v0__nor3_1 abstract view
.subckt gf180mcu_fd_sc_mcu7t5v0__nor3_1 A1 A2 A3 ZN VDD VNW VPW VSS
.ends

* Black-box entry subcircuit for gf180mcu_fd_sc_mcu7t5v0__nor2_1 abstract view
.subckt gf180mcu_fd_sc_mcu7t5v0__nor2_1 A1 A2 ZN VDD VNW VPW VSS
.ends

* Black-box entry subcircuit for gf180mcu_fd_sc_mcu7t5v0__clkinv_1 abstract view
.subckt gf180mcu_fd_sc_mcu7t5v0__clkinv_1 I ZN VDD VNW VPW VSS
.ends

* Black-box entry subcircuit for gf180mcu_fd_sc_mcu7t5v0__aoi22_1 abstract view
.subckt gf180mcu_fd_sc_mcu7t5v0__aoi22_1 A1 A2 B1 B2 ZN VDD VNW VPW VSS
.ends

* Black-box entry subcircuit for gf180mcu_fd_sc_mcu7t5v0__clkbuf_16 abstract view
.subckt gf180mcu_fd_sc_mcu7t5v0__clkbuf_16 I Z VDD VNW VPW VSS
.ends

* Black-box entry subcircuit for gf180mcu_fd_sc_mcu7t5v0__oai211_1 abstract view
.subckt gf180mcu_fd_sc_mcu7t5v0__oai211_1 A1 A2 B C ZN VDD VNW VPW VSS
.ends

* Black-box entry subcircuit for gf180mcu_fd_sc_mcu7t5v0__tiel abstract view
.subckt gf180mcu_fd_sc_mcu7t5v0__tiel ZN VDD VNW VPW VSS
.ends

* Black-box entry subcircuit for gf180mcu_fd_sc_mcu7t5v0__aoi211_1 abstract view
.subckt gf180mcu_fd_sc_mcu7t5v0__aoi211_1 A1 A2 B C ZN VDD VNW VPW VSS
.ends

* Black-box entry subcircuit for gf180mcu_fd_sc_mcu7t5v0__or2_1 abstract view
.subckt gf180mcu_fd_sc_mcu7t5v0__or2_1 A1 A2 Z VDD VNW VPW VSS
.ends

* Black-box entry subcircuit for gf180mcu_fd_sc_mcu7t5v0__nor3_2 abstract view
.subckt gf180mcu_fd_sc_mcu7t5v0__nor3_2 A1 A2 A3 ZN VDD VNW VPW VSS
.ends

* Black-box entry subcircuit for gf180mcu_fd_sc_mcu7t5v0__oai31_1 abstract view
.subckt gf180mcu_fd_sc_mcu7t5v0__oai31_1 A1 A2 A3 B ZN VDD VNW VPW VSS
.ends

* Black-box entry subcircuit for gf180mcu_fd_sc_mcu7t5v0__and2_1 abstract view
.subckt gf180mcu_fd_sc_mcu7t5v0__and2_1 A1 A2 Z VDD VNW VPW VSS
.ends

* Black-box entry subcircuit for gf180mcu_fd_sc_mcu7t5v0__nand2_2 abstract view
.subckt gf180mcu_fd_sc_mcu7t5v0__nand2_2 A1 A2 ZN VDD VNW VPW VSS
.ends

* Black-box entry subcircuit for gf180mcu_fd_sc_mcu7t5v0__inv_1 abstract view
.subckt gf180mcu_fd_sc_mcu7t5v0__inv_1 I ZN VDD VNW VPW VSS
.ends

* Black-box entry subcircuit for gf180mcu_fd_sc_mcu7t5v0__aoi221_1 abstract view
.subckt gf180mcu_fd_sc_mcu7t5v0__aoi221_1 A1 A2 B1 B2 C ZN VDD VNW VPW VSS
.ends

* Black-box entry subcircuit for gf180mcu_fd_sc_mcu7t5v0__clkbuf_2 abstract view
.subckt gf180mcu_fd_sc_mcu7t5v0__clkbuf_2 I Z VDD VNW VPW VSS
.ends

* Black-box entry subcircuit for gf180mcu_fd_sc_mcu7t5v0__oai22_1 abstract view
.subckt gf180mcu_fd_sc_mcu7t5v0__oai22_1 A1 A2 B1 B2 ZN VDD VNW VPW VSS
.ends

* Black-box entry subcircuit for gf180mcu_fd_sc_mcu7t5v0__aoi21_2 abstract view
.subckt gf180mcu_fd_sc_mcu7t5v0__aoi21_2 A1 A2 B ZN VDD VNW VPW VSS
.ends

* Black-box entry subcircuit for gf180mcu_fd_sc_mcu7t5v0__aoi211_2 abstract view
.subckt gf180mcu_fd_sc_mcu7t5v0__aoi211_2 A1 A2 B C ZN VDD VNW VPW VSS
.ends

* Black-box entry subcircuit for gf180mcu_fd_sc_mcu7t5v0__oai211_4 abstract view
.subckt gf180mcu_fd_sc_mcu7t5v0__oai211_4 A1 A2 B C ZN VDD VNW VPW VSS
.ends

* Black-box entry subcircuit for gf180mcu_fd_sc_mcu7t5v0__or4_1 abstract view
.subckt gf180mcu_fd_sc_mcu7t5v0__or4_1 A1 A2 A3 A4 Z VDD VNW VPW VSS
.ends

* Black-box entry subcircuit for gf180mcu_fd_sc_mcu7t5v0__dffnq_1 abstract view
.subckt gf180mcu_fd_sc_mcu7t5v0__dffnq_1 D CLKN Q VDD VNW VPW VSS
.ends

* Black-box entry subcircuit for gf180mcu_fd_sc_mcu7t5v0__nor2_2 abstract view
.subckt gf180mcu_fd_sc_mcu7t5v0__nor2_2 A1 A2 ZN VDD VNW VPW VSS
.ends

* Black-box entry subcircuit for gf180mcu_fd_sc_mcu7t5v0__and4_1 abstract view
.subckt gf180mcu_fd_sc_mcu7t5v0__and4_1 A1 A2 A3 A4 Z VDD VNW VPW VSS
.ends

* Black-box entry subcircuit for gf180mcu_fd_sc_mcu7t5v0__mux2_2 abstract view
.subckt gf180mcu_fd_sc_mcu7t5v0__mux2_2 I0 I1 S Z VDD VNW VPW VSS
.ends

* Black-box entry subcircuit for gf180mcu_fd_sc_mcu7t5v0__oai21_2 abstract view
.subckt gf180mcu_fd_sc_mcu7t5v0__oai21_2 A1 A2 B ZN VDD VNW VPW VSS
.ends

* Black-box entry subcircuit for gf180mcu_fd_sc_mcu7t5v0__or3_1 abstract view
.subckt gf180mcu_fd_sc_mcu7t5v0__or3_1 A1 A2 A3 Z VDD VNW VPW VSS
.ends

* Black-box entry subcircuit for gf180mcu_fd_sc_mcu7t5v0__oai32_1 abstract view
.subckt gf180mcu_fd_sc_mcu7t5v0__oai32_1 A1 A2 A3 B1 B2 ZN VDD VNW VPW VSS
.ends

* Black-box entry subcircuit for gf180mcu_fd_sc_mcu7t5v0__fillcap_32 abstract view
.subckt gf180mcu_fd_sc_mcu7t5v0__fillcap_32 VDD VNW VPW VSS
.ends

* Black-box entry subcircuit for gf180mcu_fd_sc_mcu7t5v0__nand4_4 abstract view
.subckt gf180mcu_fd_sc_mcu7t5v0__nand4_4 A1 A2 A3 A4 ZN VDD VNW VPW VSS
.ends

* Black-box entry subcircuit for gf180mcu_fd_sc_mcu7t5v0__nand4_2 abstract view
.subckt gf180mcu_fd_sc_mcu7t5v0__nand4_2 A1 A2 A3 A4 ZN VDD VNW VPW VSS
.ends

* Black-box entry subcircuit for gf180mcu_fd_sc_mcu7t5v0__buf_2 abstract view
.subckt gf180mcu_fd_sc_mcu7t5v0__buf_2 I Z VDD VNW VPW VSS
.ends

* Black-box entry subcircuit for gf180mcu_fd_sc_mcu7t5v0__xor2_1 abstract view
.subckt gf180mcu_fd_sc_mcu7t5v0__xor2_1 A1 A2 Z VDD VNW VPW VSS
.ends

* Black-box entry subcircuit for gf180mcu_fd_sc_mcu7t5v0__xnor2_1 abstract view
.subckt gf180mcu_fd_sc_mcu7t5v0__xnor2_1 A1 A2 ZN VDD VNW VPW VSS
.ends

* Black-box entry subcircuit for gf180mcu_fd_sc_mcu7t5v0__oai31_2 abstract view
.subckt gf180mcu_fd_sc_mcu7t5v0__oai31_2 A1 A2 A3 B ZN VDD VNW VPW VSS
.ends

* Black-box entry subcircuit for gf180mcu_fd_sc_mcu7t5v0__oai221_1 abstract view
.subckt gf180mcu_fd_sc_mcu7t5v0__oai221_1 A1 A2 B1 B2 C ZN VDD VNW VPW VSS
.ends

.subckt wrapped_mc14500 SDI clk_i custom_setting io_in[0] io_in[1] io_in[2] io_in[3]
+ io_in[4] io_in[5] io_in[6] io_in[7] io_out[10] io_out[11] io_out[12] io_out[13]
+ io_out[14] io_out[15] io_out[16] io_out[17] io_out[18] io_out[19] io_out[20] io_out[21]
+ io_out[22] io_out[23] io_out[24] io_out[25] io_out[26] io_out[27] io_out[28] io_out[29]
+ io_out[2] io_out[30] io_out[7] io_out[8] io_out[9] rst_n sram_addr[0] sram_addr[1]
+ sram_addr[2] sram_addr[3] sram_addr[4] sram_addr[5] sram_gwe sram_in[0] sram_in[1]
+ sram_in[2] sram_in[3] sram_in[4] sram_in[5] sram_in[6] sram_in[7] sram_out[0] sram_out[1]
+ sram_out[2] sram_out[3] sram_out[4] sram_out[5] sram_out[6] sram_out[7] vdd vss
+ io_out[1] io_out[0] io_out[6] io_out[5] io_out[4] io_out[3]
XANTENNA__0738__I _0280_ vdd vdd vss vss gf180mcu_fd_sc_mcu7t5v0__antenna
XTAP_TAPCELL_ROW_9_115 vdd vss gf180mcu_fd_sc_mcu7t5v0__filltie
XTAP_TAPCELL_ROW_15_139 vdd vss gf180mcu_fd_sc_mcu7t5v0__filltie
XANTENNA_output37_I net37 vdd vdd vss vss gf180mcu_fd_sc_mcu7t5v0__antenna
XFILLER_0_13_40 vdd vdd vss vss gf180mcu_fd_sc_mcu7t5v0__fill_1
X_0985_ _0480_ _0481_ _0324_ _0482_ vdd vdd vss vss gf180mcu_fd_sc_mcu7t5v0__oai21_1
XFILLER_0_20_217 vdd vdd vss vss gf180mcu_fd_sc_mcu7t5v0__fill_2
X_0770_ _0286_ _0308_ vdd vdd vss vss gf180mcu_fd_sc_mcu7t5v0__buf_1
XTAP_TAPCELL_ROW_11_120 vdd vss gf180mcu_fd_sc_mcu7t5v0__filltie
XFILLER_0_11_206 vdd vdd vss vss gf180mcu_fd_sc_mcu7t5v0__fill_2
XTAP_TAPCELL_ROW_34_212 vdd vss gf180mcu_fd_sc_mcu7t5v0__filltie
X_0968_ _0154_ _0465_ _0467_ _0468_ vdd vdd vss vss gf180mcu_fd_sc_mcu7t5v0__and3_1
XANTENNA_clkbuf_3_3__f_clk_i_I clknet_0_clk_i vdd vdd vss vss gf180mcu_fd_sc_mcu7t5v0__antenna
X_0899_ _0116_ _0408_ vdd vdd vss vss gf180mcu_fd_sc_mcu7t5v0__buf_1
XANTENNA__0661__I _0217_ vdd vdd vss vss gf180mcu_fd_sc_mcu7t5v0__antenna
XFILLER_0_29_39 vdd vdd vss vss gf180mcu_fd_sc_mcu7t5v0__fillcap_4
X_0822_ _0120_ _0164_ _0216_ _0351_ vdd vdd vss vss gf180mcu_fd_sc_mcu7t5v0__nand3_2
X_0753_ _0248_ _0293_ _0294_ vdd vdd vss vss gf180mcu_fd_sc_mcu7t5v0__nand2_1
X_0684_ _0234_ _0235_ _0231_ _0019_ vdd vdd vss vss gf180mcu_fd_sc_mcu7t5v0__aoi21_1
XFILLER_0_10_74 vdd vdd vss vss gf180mcu_fd_sc_mcu7t5v0__fill_1
XFILLER_0_10_96 vdd vdd vss vss gf180mcu_fd_sc_mcu7t5v0__fill_2
XFILLER_0_19_50 vdd vdd vss vss gf180mcu_fd_sc_mcu7t5v0__fill_2
XFILLER_0_19_72 vdd vdd vss vss gf180mcu_fd_sc_mcu7t5v0__fillcap_8
X_1098_ _0070_ clknet_3_3__leaf_clk_i net26 vdd vdd vss vss gf180mcu_fd_sc_mcu7t5v0__dffq_1
XFILLER_0_19_169 vdd vdd vss vss gf180mcu_fd_sc_mcu7t5v0__fill_2
XFILLER_0_25_139 vdd vdd vss vss gf180mcu_fd_sc_mcu7t5v0__fill_1
XFILLER_0_0_206 vdd vdd vss vss gf180mcu_fd_sc_mcu7t5v0__fill_1
XFILLER_0_0_217 vdd vdd vss vss gf180mcu_fd_sc_mcu7t5v0__fill_2
X_1021_ net46 _0500_ _0509_ vdd vdd vss vss gf180mcu_fd_sc_mcu7t5v0__nand2_1
X_0805_ _0116_ _0337_ vdd vdd vss vss gf180mcu_fd_sc_mcu7t5v0__clkbuf_1
X_0736_ dia\[6\] _0263_ _0278_ _0279_ vdd vdd vss vss gf180mcu_fd_sc_mcu7t5v0__oai21_1
X_0667_ net52 _0218_ _0223_ vdd vdd vss vss gf180mcu_fd_sc_mcu7t5v0__nand2_1
X_0598_ _0158_ _0111_ scratch\[2\] _0159_ vdd vdd vss vss gf180mcu_fd_sc_mcu7t5v0__nand3_1
XFILLER_0_1_72 vdd vdd vss vss gf180mcu_fd_sc_mcu7t5v0__fill_2
X_0521_ _0088_ _0091_ _0093_ _0094_ vdd vdd vss vss gf180mcu_fd_sc_mcu7t5v0__and3_1
X_1004_ _0203_ _0495_ _0496_ _0078_ vdd vdd vss vss gf180mcu_fd_sc_mcu7t5v0__aoi21_1
XFILLER_0_12_142 vdd vdd vss vss gf180mcu_fd_sc_mcu7t5v0__fillcap_4
X_0719_ _0264_ _0249_ _0265_ vdd vdd vss vss gf180mcu_fd_sc_mcu7t5v0__nand2_1
Xoutput31 net31 io_out[21] vdd vdd vss vss gf180mcu_fd_sc_mcu7t5v0__buf_8
Xoutput53 net53 sram_in[3] vdd vdd vss vss gf180mcu_fd_sc_mcu7t5v0__buf_8
Xoutput20 net20 io_out[10] vdd vdd vss vss gf180mcu_fd_sc_mcu7t5v0__buf_8
Xoutput42 net42 io_out[9] vdd vdd vss vss gf180mcu_fd_sc_mcu7t5v0__buf_8
XTAP_TAPCELL_ROW_18_148 vdd vss gf180mcu_fd_sc_mcu7t5v0__filltie
XTAP_TAPCELL_ROW_26_181 vdd vss gf180mcu_fd_sc_mcu7t5v0__filltie
XFILLER_0_27_94 vdd vdd vss vss gf180mcu_fd_sc_mcu7t5v0__fill_2
XFILLER_0_17_212 vdd vdd vss vss gf180mcu_fd_sc_mcu7t5v0__fill_2
XANTENNA__0664__I _0131_ vdd vdd vss vss gf180mcu_fd_sc_mcu7t5v0__antenna
XANTENNA__0839__I _0351_ vdd vdd vss vss gf180mcu_fd_sc_mcu7t5v0__antenna
XFILLER_0_13_96 vdd vdd vss vss gf180mcu_fd_sc_mcu7t5v0__fill_2
X_0984_ _0327_ _0462_ _0481_ vdd vdd vss vss gf180mcu_fd_sc_mcu7t5v0__nand2_1
XFILLER_0_1_131 vdd vdd vss vss gf180mcu_fd_sc_mcu7t5v0__fill_1
XANTENNA__1079__CLK clknet_3_2__leaf_clk_i vdd vdd vss vss gf180mcu_fd_sc_mcu7t5v0__antenna
XFILLER_0_20_229 vdd vdd vss vss gf180mcu_fd_sc_mcu7t5v0__fill_2
XTAP_TAPCELL_ROW_11_121 vdd vss gf180mcu_fd_sc_mcu7t5v0__filltie
XTAP_TAPCELL_ROW_34_213 vdd vss gf180mcu_fd_sc_mcu7t5v0__filltie
XFILLER_0_6_212 vdd vdd vss vss gf180mcu_fd_sc_mcu7t5v0__fill_2
X_0967_ _0429_ _0460_ _0466_ _0467_ vdd vdd vss vss gf180mcu_fd_sc_mcu7t5v0__oai21_1
XPHY_EDGE_ROW_12_Right_12 vdd vss gf180mcu_fd_sc_mcu7t5v0__endcap
X_0898_ _0404_ _0407_ vdd vdd vss vss gf180mcu_fd_sc_mcu7t5v0__buf_1
XPHY_EDGE_ROW_21_Right_21 vdd vss gf180mcu_fd_sc_mcu7t5v0__endcap
XPHY_EDGE_ROW_30_Right_30 vdd vss gf180mcu_fd_sc_mcu7t5v0__endcap
XFILLER_0_29_18 vdd vdd vss vss gf180mcu_fd_sc_mcu7t5v0__fillcap_8
X_0752_ _0284_ _0293_ vdd vdd vss vss gf180mcu_fd_sc_mcu7t5v0__buf_1
XFILLER_0_9_39 vdd vdd vss vss gf180mcu_fd_sc_mcu7t5v0__fill_2
X_0821_ dest\[15\] _0349_ _0350_ vdd vdd vss vss gf180mcu_fd_sc_mcu7t5v0__nand2_1
X_0683_ net55 _0228_ _0235_ vdd vdd vss vss gf180mcu_fd_sc_mcu7t5v0__nand2_1
XFILLER_0_34_107 vdd vdd vss vss gf180mcu_fd_sc_mcu7t5v0__fill_2
X_1097_ _0069_ clknet_3_3__leaf_clk_i net25 vdd vdd vss vss gf180mcu_fd_sc_mcu7t5v0__dffq_2
XFILLER_0_18_170 vdd vdd vss vss gf180mcu_fd_sc_mcu7t5v0__fill_1
X_1020_ _0499_ _0507_ _0508_ _0082_ vdd vdd vss vss gf180mcu_fd_sc_mcu7t5v0__aoi21_1
XANTENNA__1008__I _0202_ vdd vdd vss vss gf180mcu_fd_sc_mcu7t5v0__antenna
XPHY_EDGE_ROW_28_Left_64 vdd vss gf180mcu_fd_sc_mcu7t5v0__endcap
X_0735_ _0277_ _0243_ _0278_ vdd vdd vss vss gf180mcu_fd_sc_mcu7t5v0__nand2_1
XPHY_EDGE_ROW_12_Left_48 vdd vss gf180mcu_fd_sc_mcu7t5v0__endcap
XFILLER_0_16_107 vdd vdd vss vss gf180mcu_fd_sc_mcu7t5v0__fillcap_16
X_0804_ net34 _0326_ _0335_ _0336_ vdd vdd vss vss gf180mcu_fd_sc_mcu7t5v0__nor3_1
X_0666_ _0219_ _0220_ _0222_ _0014_ vdd vdd vss vss gf180mcu_fd_sc_mcu7t5v0__aoi21_1
X_0597_ net8 _0158_ vdd vdd vss vss gf180mcu_fd_sc_mcu7t5v0__buf_1
XANTENNA__0834__I0 _0185_ vdd vdd vss vss gf180mcu_fd_sc_mcu7t5v0__antenna
XFILLER_0_21_121 vdd vdd vss vss gf180mcu_fd_sc_mcu7t5v0__fill_1
X_0520_ mc14500.skip _0092_ _0093_ vdd vdd vss vss gf180mcu_fd_sc_mcu7t5v0__nor2_1
X_1003_ mar\[0\] _0206_ _0318_ _0496_ vdd vdd vss vss gf180mcu_fd_sc_mcu7t5v0__oai21_1
XFILLER_0_8_104 vdd vdd vss vss gf180mcu_fd_sc_mcu7t5v0__fill_1
XANTENNA__0816__I0 _0185_ vdd vdd vss vss gf180mcu_fd_sc_mcu7t5v0__antenna
XFILLER_0_32_51 vdd vdd vss vss gf180mcu_fd_sc_mcu7t5v0__fill_2
XFILLER_0_32_62 vdd vdd vss vss gf180mcu_fd_sc_mcu7t5v0__fill_1
XPHY_EDGE_ROW_6_Right_6 vdd vss gf180mcu_fd_sc_mcu7t5v0__endcap
X_0718_ net16 _0264_ vdd vdd vss vss gf180mcu_fd_sc_mcu7t5v0__clkinv_1
X_0649_ net44 _0204_ _0208_ vdd vdd vss vss gf180mcu_fd_sc_mcu7t5v0__nand2_1
XANTENNA_input11_I rst_n vdd vdd vss vss gf180mcu_fd_sc_mcu7t5v0__antenna
Xoutput43 net43 sram_addr[0] vdd vdd vss vss gf180mcu_fd_sc_mcu7t5v0__buf_8
Xoutput54 net54 sram_in[4] vdd vdd vss vss gf180mcu_fd_sc_mcu7t5v0__buf_8
XFILLER_0_9_2 vdd vdd vss vss gf180mcu_fd_sc_mcu7t5v0__fillcap_16
Xoutput21 net21 io_out[11] vdd vdd vss vss gf180mcu_fd_sc_mcu7t5v0__buf_8
Xoutput32 net32 io_out[22] vdd vdd vss vss gf180mcu_fd_sc_mcu7t5v0__buf_8
XTAP_TAPCELL_ROW_18_149 vdd vss gf180mcu_fd_sc_mcu7t5v0__filltie
XTAP_TAPCELL_ROW_26_182 vdd vss gf180mcu_fd_sc_mcu7t5v0__filltie
XANTENNA_input3_I io_in[0] vdd vdd vss vss gf180mcu_fd_sc_mcu7t5v0__antenna
XFILLER_0_17_279 vdd vdd vss vss gf180mcu_fd_sc_mcu7t5v0__fill_1
XPHY_EDGE_ROW_15_Left_51 vdd vss gf180mcu_fd_sc_mcu7t5v0__endcap
XFILLER_0_31_282 vdd vdd vss vss gf180mcu_fd_sc_mcu7t5v0__fill_2
X_0983_ net30 _0480_ vdd vdd vss vss gf180mcu_fd_sc_mcu7t5v0__clkinv_1
XANTENNA__0590__I _0131_ vdd vdd vss vss gf180mcu_fd_sc_mcu7t5v0__antenna
XTAP_TAPCELL_ROW_3_90 vdd vss gf180mcu_fd_sc_mcu7t5v0__filltie
XPHY_EDGE_ROW_0_Left_36 vdd vss gf180mcu_fd_sc_mcu7t5v0__endcap
XFILLER_0_13_282 vdd vdd vss vss gf180mcu_fd_sc_mcu7t5v0__fill_2
XTAP_TAPCELL_ROW_11_122 vdd vss gf180mcu_fd_sc_mcu7t5v0__filltie
XTAP_TAPCELL_ROW_34_214 vdd vss gf180mcu_fd_sc_mcu7t5v0__filltie
XANTENNA__0617__A1 net10 vdd vdd vss vss gf180mcu_fd_sc_mcu7t5v0__antenna
X_0966_ net27 _0466_ vdd vdd vss vss gf180mcu_fd_sc_mcu7t5v0__clkinv_1
XFILLER_0_6_224 vdd vdd vss vss gf180mcu_fd_sc_mcu7t5v0__fill_2
X_0897_ net41 _0406_ vdd vdd vss vss gf180mcu_fd_sc_mcu7t5v0__buf_1
X_0751_ _0287_ _0290_ _0292_ _0029_ vdd vdd vss vss gf180mcu_fd_sc_mcu7t5v0__aoi21_1
XFILLER_0_9_29 vdd vdd vss vss gf180mcu_fd_sc_mcu7t5v0__fill_2
X_0820_ _0348_ _0349_ vdd vdd vss vss gf180mcu_fd_sc_mcu7t5v0__buf_1
X_0682_ net56 _0217_ _0234_ vdd vdd vss vss gf180mcu_fd_sc_mcu7t5v0__nand2_1
XFILLER_0_10_87 vdd vdd vss vss gf180mcu_fd_sc_mcu7t5v0__fill_2
XFILLER_0_10_98 vdd vdd vss vss gf180mcu_fd_sc_mcu7t5v0__fill_1
XFILLER_0_19_52 vdd vdd vss vss gf180mcu_fd_sc_mcu7t5v0__fill_1
X_1096_ _0068_ clknet_3_3__leaf_clk_i net24 vdd vdd vss vss gf180mcu_fd_sc_mcu7t5v0__dffq_2
XANTENNA__0838__A1 _0210_ vdd vdd vss vss gf180mcu_fd_sc_mcu7t5v0__antenna
XFILLER_0_19_96 vdd vdd vss vss gf180mcu_fd_sc_mcu7t5v0__fillcap_4
XFILLER_0_19_138 vdd vdd vss vss gf180mcu_fd_sc_mcu7t5v0__fill_2
X_0949_ _0338_ _0449_ _0451_ net24 _0452_ vdd vdd vss vss gf180mcu_fd_sc_mcu7t5v0__aoi22_1
XANTENNA__0829__A1 _0210_ vdd vdd vss vss gf180mcu_fd_sc_mcu7t5v0__antenna
XFILLER_0_21_31 vdd vdd vss vss gf180mcu_fd_sc_mcu7t5v0__fill_1
X_0734_ net19 _0277_ vdd vdd vss vss gf180mcu_fd_sc_mcu7t5v0__clkinv_1
X_0665_ _0221_ _0222_ vdd vdd vss vss gf180mcu_fd_sc_mcu7t5v0__buf_1
XFILLER_0_24_152 vdd vdd vss vss gf180mcu_fd_sc_mcu7t5v0__fill_2
XFILLER_0_24_163 vdd vdd vss vss gf180mcu_fd_sc_mcu7t5v0__fill_2
X_0803_ _0331_ _0335_ vdd vdd vss vss gf180mcu_fd_sc_mcu7t5v0__clkbuf_1
X_0596_ _0151_ _0155_ _0157_ _0001_ vdd vdd vss vss gf180mcu_fd_sc_mcu7t5v0__aoi21_1
X_1079_ _0051_ clknet_3_2__leaf_clk_i dest\[5\] vdd vdd vss vss gf180mcu_fd_sc_mcu7t5v0__dffq_1
XFILLER_0_21_177 vdd vdd vss vss gf180mcu_fd_sc_mcu7t5v0__fill_2
X_1002_ mc14500.DATA_OUT _0204_ _0495_ vdd vdd vss vss gf180mcu_fd_sc_mcu7t5v0__nand2_1
XFILLER_0_16_20 vdd vdd vss vss gf180mcu_fd_sc_mcu7t5v0__fill_1
X_0717_ _0242_ _0263_ vdd vdd vss vss gf180mcu_fd_sc_mcu7t5v0__buf_1
X_0648_ _0203_ _0205_ _0207_ _0011_ vdd vdd vss vss gf180mcu_fd_sc_mcu7t5v0__aoi21_1
XFILLER_0_12_155 vdd vdd vss vss gf180mcu_fd_sc_mcu7t5v0__fill_2
X_0579_ _0142_ _0143_ _0144_ _0003_ vdd vdd vss vss gf180mcu_fd_sc_mcu7t5v0__oai21_1
XFILLER_0_35_269 vdd vdd vss vss gf180mcu_fd_sc_mcu7t5v0__fill_2
XFILLER_0_7_193 vdd vdd vss vss gf180mcu_fd_sc_mcu7t5v0__fill_2
Xoutput55 net55 sram_in[5] vdd vdd vss vss gf180mcu_fd_sc_mcu7t5v0__buf_8
Xoutput44 net44 sram_addr[1] vdd vdd vss vss gf180mcu_fd_sc_mcu7t5v0__buf_8
Xoutput33 net33 io_out[23] vdd vdd vss vss gf180mcu_fd_sc_mcu7t5v0__buf_8
Xoutput22 net22 io_out[12] vdd vdd vss vss gf180mcu_fd_sc_mcu7t5v0__buf_8
XFILLER_0_26_236 vdd vdd vss vss gf180mcu_fd_sc_mcu7t5v0__fill_1
XTAP_TAPCELL_ROW_26_183 vdd vss gf180mcu_fd_sc_mcu7t5v0__filltie
XANTENNA__0588__I net36 vdd vdd vss vss gf180mcu_fd_sc_mcu7t5v0__antenna
XFILLER_0_17_214 vdd vdd vss vss gf180mcu_fd_sc_mcu7t5v0__fill_1
XANTENNA__0653__A2 _0171_ vdd vdd vss vss gf180mcu_fd_sc_mcu7t5v0__antenna
Xclkbuf_3_3__f_clk_i clknet_0_clk_i clknet_3_3__leaf_clk_i vdd vdd vss vss gf180mcu_fd_sc_mcu7t5v0__clkbuf_16
XFILLER_0_13_76 vdd vdd vss vss gf180mcu_fd_sc_mcu7t5v0__fill_2
X_0982_ _0475_ _0479_ _0073_ vdd vdd vss vss gf180mcu_fd_sc_mcu7t5v0__nor2_1
XTAP_TAPCELL_ROW_3_91 vdd vss gf180mcu_fd_sc_mcu7t5v0__filltie
XANTENNA__0580__A1 _0125_ vdd vdd vss vss gf180mcu_fd_sc_mcu7t5v0__antenna
XFILLER_0_13_250 vdd vdd vss vss gf180mcu_fd_sc_mcu7t5v0__fill_2
XTAP_TAPCELL_ROW_20_156 vdd vss gf180mcu_fd_sc_mcu7t5v0__filltie
XANTENNA_output35_I net35 vdd vdd vss vss gf180mcu_fd_sc_mcu7t5v0__antenna
XANTENNA__0626__A2 _0185_ vdd vdd vss vss gf180mcu_fd_sc_mcu7t5v0__antenna
XTAP_TAPCELL_ROW_11_123 vdd vss gf180mcu_fd_sc_mcu7t5v0__filltie
XTAP_TAPCELL_ROW_34_215 vdd vss gf180mcu_fd_sc_mcu7t5v0__filltie
XFILLER_0_24_31 vdd vdd vss vss gf180mcu_fd_sc_mcu7t5v0__fill_2
X_0896_ _0404_ _0405_ vdd vdd vss vss gf180mcu_fd_sc_mcu7t5v0__buf_1
X_0965_ _0462_ _0405_ _0463_ _0464_ _0465_ vdd vdd vss vss gf180mcu_fd_sc_mcu7t5v0__oai211_1
XANTENNA__0553__A1 _0109_ vdd vdd vss vss gf180mcu_fd_sc_mcu7t5v0__antenna
XFILLER_0_4_96 vdd vdd vss vss gf180mcu_fd_sc_mcu7t5v0__fill_2
XFILLER_0_3_228 vdd vdd vss vss gf180mcu_fd_sc_mcu7t5v0__fill_2
X_0750_ dib\[0\] _0291_ _0281_ _0292_ vdd vdd vss vss gf180mcu_fd_sc_mcu7t5v0__oai21_1
X_0681_ _0232_ _0233_ _0231_ _0018_ vdd vdd vss vss gf180mcu_fd_sc_mcu7t5v0__aoi21_1
X_1095_ _0067_ clknet_3_2__leaf_clk_i net23 vdd vdd vss vss gf180mcu_fd_sc_mcu7t5v0__dffq_1
X_0948_ _0425_ _0450_ _0451_ vdd vdd vss vss gf180mcu_fd_sc_mcu7t5v0__nand2_1
X_0879_ _0390_ _0391_ _0392_ _0057_ vdd vdd vss vss gf180mcu_fd_sc_mcu7t5v0__aoi21_1
XANTENNA__0829__A2 _0355_ vdd vdd vss vss gf180mcu_fd_sc_mcu7t5v0__antenna
XANTENNA_clkbuf_3_2__f_clk_i_I clknet_0_clk_i vdd vdd vss vss gf180mcu_fd_sc_mcu7t5v0__antenna
X_0802_ _0332_ _0333_ _0334_ vdd vdd vss vss gf180mcu_fd_sc_mcu7t5v0__nand2_1
X_0733_ _0262_ _0275_ _0276_ _0027_ vdd vdd vss vss gf180mcu_fd_sc_mcu7t5v0__aoi21_1
X_0664_ _0131_ _0221_ vdd vdd vss vss gf180mcu_fd_sc_mcu7t5v0__clkinv_1
X_0595_ mc14500.OEN_l _0156_ _0157_ vdd vdd vss vss gf180mcu_fd_sc_mcu7t5v0__nand2_1
X_1078_ _0050_ clknet_3_2__leaf_clk_i dest\[4\] vdd vdd vss vss gf180mcu_fd_sc_mcu7t5v0__dffq_1
XFILLER_0_15_142 vdd vdd vss vss gf180mcu_fd_sc_mcu7t5v0__fillcap_4
Xwrapped_mc14500_70 io_out[3] vdd vdd vss vss gf180mcu_fd_sc_mcu7t5v0__tiel
XFILLER_0_16_87 vdd vdd vss vss gf180mcu_fd_sc_mcu7t5v0__fill_1
X_1001_ _0420_ _0493_ _0494_ _0230_ _0077_ vdd vdd vss vss gf180mcu_fd_sc_mcu7t5v0__aoi211_1
XTAP_TAPCELL_ROW_29_192 vdd vss gf180mcu_fd_sc_mcu7t5v0__filltie
XFILLER_0_29_212 vdd vdd vss vss gf180mcu_fd_sc_mcu7t5v0__fill_1
XFILLER_0_32_31 vdd vdd vss vss gf180mcu_fd_sc_mcu7t5v0__fill_2
XFILLER_0_32_53 vdd vdd vss vss gf180mcu_fd_sc_mcu7t5v0__fill_1
X_0647_ net44 _0206_ _0138_ _0207_ vdd vdd vss vss gf180mcu_fd_sc_mcu7t5v0__oai21_1
XFILLER_0_12_167 vdd vdd vss vss gf180mcu_fd_sc_mcu7t5v0__fillcap_4
X_0716_ _0240_ _0262_ vdd vdd vss vss gf180mcu_fd_sc_mcu7t5v0__buf_1
X_0578_ mc14500.DATA_OUT _0143_ _0144_ vdd vdd vss vss gf180mcu_fd_sc_mcu7t5v0__nand2_1
XFILLER_0_25_2 vdd vdd vss vss gf180mcu_fd_sc_mcu7t5v0__fillcap_16
XANTENNA__0968__A1 _0154_ vdd vdd vss vss gf180mcu_fd_sc_mcu7t5v0__antenna
Xoutput34 net34 io_out[24] vdd vdd vss vss gf180mcu_fd_sc_mcu7t5v0__buf_8
Xoutput23 net23 io_out[13] vdd vdd vss vss gf180mcu_fd_sc_mcu7t5v0__buf_8
Xoutput45 net45 sram_addr[2] vdd vdd vss vss gf180mcu_fd_sc_mcu7t5v0__buf_8
Xoutput56 net56 sram_in[6] vdd vdd vss vss gf180mcu_fd_sc_mcu7t5v0__buf_8
XANTENNA__0869__I _0351_ vdd vdd vss vss gf180mcu_fd_sc_mcu7t5v0__antenna
XFILLER_0_27_31 vdd vdd vss vss gf180mcu_fd_sc_mcu7t5v0__fill_2
XFILLER_0_27_42 vdd vdd vss vss gf180mcu_fd_sc_mcu7t5v0__fill_2
XTAP_TAPCELL_ROW_14_132 vdd vss gf180mcu_fd_sc_mcu7t5v0__filltie
X_0981_ net29 _0476_ _0478_ _0338_ _0479_ vdd vdd vss vss gf180mcu_fd_sc_mcu7t5v0__aoi22_1
XANTENNA__0599__I _0110_ vdd vdd vss vss gf180mcu_fd_sc_mcu7t5v0__antenna
XTAP_TAPCELL_ROW_20_157 vdd vss gf180mcu_fd_sc_mcu7t5v0__filltie
XFILLER_0_24_98 vdd vdd vss vss gf180mcu_fd_sc_mcu7t5v0__fill_1
X_0964_ _0337_ _0464_ vdd vdd vss vss gf180mcu_fd_sc_mcu7t5v0__buf_1
X_0895_ _0403_ _0404_ vdd vdd vss vss gf180mcu_fd_sc_mcu7t5v0__clkbuf_1
XANTENNA__1092__CLK clknet_3_2__leaf_clk_i vdd vdd vss vss gf180mcu_fd_sc_mcu7t5v0__antenna
XFILLER_0_28_107 vdd vdd vss vss gf180mcu_fd_sc_mcu7t5v0__fill_2
X_0680_ net54 _0228_ _0233_ vdd vdd vss vss gf180mcu_fd_sc_mcu7t5v0__nand2_1
XFILLER_0_10_34 vdd vdd vss vss gf180mcu_fd_sc_mcu7t5v0__fill_1
XFILLER_0_10_89 vdd vdd vss vss gf180mcu_fd_sc_mcu7t5v0__fill_1
XFILLER_0_19_10 vdd vdd vss vss gf180mcu_fd_sc_mcu7t5v0__fill_2
X_1094_ _0066_ clknet_3_2__leaf_clk_i net22 vdd vdd vss vss gf180mcu_fd_sc_mcu7t5v0__dffq_1
X_0947_ _0333_ _0447_ _0450_ vdd vdd vss vss gf180mcu_fd_sc_mcu7t5v0__nand2_1
X_0878_ _0343_ _0392_ vdd vdd vss vss gf180mcu_fd_sc_mcu7t5v0__clkbuf_1
XFILLER_0_18_140 vdd vdd vss vss gf180mcu_fd_sc_mcu7t5v0__fillcap_4
X_0801_ _0323_ _0333_ vdd vdd vss vss gf180mcu_fd_sc_mcu7t5v0__buf_1
X_0663_ net50 _0213_ _0220_ vdd vdd vss vss gf180mcu_fd_sc_mcu7t5v0__nand2_1
X_0732_ dia\[6\] _0267_ _0260_ _0276_ vdd vdd vss vss gf180mcu_fd_sc_mcu7t5v0__oai21_1
X_0594_ _0151_ _0155_ _0156_ vdd vdd vss vss gf180mcu_fd_sc_mcu7t5v0__or2_1
X_1077_ _0049_ clknet_3_2__leaf_clk_i dest\[3\] vdd vdd vss vss gf180mcu_fd_sc_mcu7t5v0__dffq_1
Xwrapped_mc14500_71 io_out[4] vdd vdd vss vss gf180mcu_fd_sc_mcu7t5v0__tiel
XFILLER_0_21_102 vdd vdd vss vss gf180mcu_fd_sc_mcu7t5v0__fill_2
XFILLER_0_21_135 vdd vdd vss vss gf180mcu_fd_sc_mcu7t5v0__fill_2
XFILLER_0_21_179 vdd vdd vss vss gf180mcu_fd_sc_mcu7t5v0__fill_1
X_1000_ _0464_ _0489_ net33 _0494_ vdd vdd vss vss gf180mcu_fd_sc_mcu7t5v0__aoi21_1
XFILLER_0_8_107 vdd vdd vss vss gf180mcu_fd_sc_mcu7t5v0__fill_2
XTAP_TAPCELL_ROW_29_193 vdd vss gf180mcu_fd_sc_mcu7t5v0__filltie
XFILLER_0_32_65 vdd vdd vss vss gf180mcu_fd_sc_mcu7t5v0__fill_2
X_0715_ _0241_ _0259_ _0261_ _0024_ vdd vdd vss vss gf180mcu_fd_sc_mcu7t5v0__aoi21_1
XANTENNA__1000__B net33 vdd vdd vss vss gf180mcu_fd_sc_mcu7t5v0__antenna
X_0646_ _0202_ _0206_ vdd vdd vss vss gf180mcu_fd_sc_mcu7t5v0__buf_1
XFILLER_0_12_146 vdd vdd vss vss gf180mcu_fd_sc_mcu7t5v0__fill_2
X_0577_ _0126_ _0108_ _0121_ _0143_ vdd vdd vss vss gf180mcu_fd_sc_mcu7t5v0__nor3_2
Xoutput24 net24 io_out[14] vdd vdd vss vss gf180mcu_fd_sc_mcu7t5v0__buf_8
Xoutput35 net35 io_out[25] vdd vdd vss vss gf180mcu_fd_sc_mcu7t5v0__buf_8
Xoutput46 net46 sram_addr[3] vdd vdd vss vss gf180mcu_fd_sc_mcu7t5v0__buf_8
Xoutput57 net57 sram_in[7] vdd vdd vss vss gf180mcu_fd_sc_mcu7t5v0__buf_8
XPHY_EDGE_ROW_19_Right_19 vdd vss gf180mcu_fd_sc_mcu7t5v0__endcap
XPHY_EDGE_ROW_28_Right_28 vdd vss gf180mcu_fd_sc_mcu7t5v0__endcap
XFILLER_0_27_87 vdd vdd vss vss gf180mcu_fd_sc_mcu7t5v0__fillcap_4
X_0629_ _0188_ _0189_ _0190_ vdd vdd vss vss gf180mcu_fd_sc_mcu7t5v0__nor2_1
XFILLER_0_13_34 vdd vdd vss vss gf180mcu_fd_sc_mcu7t5v0__fillcap_4
XFILLER_0_13_78 vdd vdd vss vss gf180mcu_fd_sc_mcu7t5v0__fill_1
XFILLER_0_13_89 vdd vdd vss vss gf180mcu_fd_sc_mcu7t5v0__fill_1
XTAP_TAPCELL_ROW_14_133 vdd vss gf180mcu_fd_sc_mcu7t5v0__filltie
X_0980_ net29 _0407_ _0469_ _0477_ _0478_ vdd vdd vss vss gf180mcu_fd_sc_mcu7t5v0__oai31_1
XANTENNA_input1_I SDI vdd vdd vss vss gf180mcu_fd_sc_mcu7t5v0__antenna
XPHY_EDGE_ROW_19_Left_55 vdd vss gf180mcu_fd_sc_mcu7t5v0__endcap
XFILLER_0_9_279 vdd vdd vss vss gf180mcu_fd_sc_mcu7t5v0__fill_1
XTAP_TAPCELL_ROW_20_158 vdd vss gf180mcu_fd_sc_mcu7t5v0__filltie
XANTENNA__0562__A3 _0131_ vdd vdd vss vss gf180mcu_fd_sc_mcu7t5v0__antenna
XFILLER_0_6_216 vdd vdd vss vss gf180mcu_fd_sc_mcu7t5v0__fill_2
X_0894_ _0088_ _0101_ _0403_ vdd vdd vss vss gf180mcu_fd_sc_mcu7t5v0__and2_1
X_0963_ dest\[9\] _0440_ _0463_ vdd vdd vss vss gf180mcu_fd_sc_mcu7t5v0__nand2_1
XFILLER_0_5_282 vdd vdd vss vss gf180mcu_fd_sc_mcu7t5v0__fill_2
XTAP_TAPCELL_ROW_0_72 vdd vss gf180mcu_fd_sc_mcu7t5v0__filltie
XFILLER_0_19_66 vdd vdd vss vss gf180mcu_fd_sc_mcu7t5v0__fill_2
X_1093_ _0065_ clknet_3_2__leaf_clk_i net21 vdd vdd vss vss gf180mcu_fd_sc_mcu7t5v0__dffq_1
XANTENNA__1003__B _0318_ vdd vdd vss vss gf180mcu_fd_sc_mcu7t5v0__antenna
XFILLER_0_2_230 vdd vdd vss vss gf180mcu_fd_sc_mcu7t5v0__fill_2
X_0877_ dest\[10\] _0383_ _0391_ vdd vdd vss vss gf180mcu_fd_sc_mcu7t5v0__nand2_1
X_0946_ _0446_ _0448_ _0449_ vdd vdd vss vss gf180mcu_fd_sc_mcu7t5v0__nand2_1
X_0731_ dia\[5\] _0263_ _0274_ _0275_ vdd vdd vss vss gf180mcu_fd_sc_mcu7t5v0__oai21_1
XFILLER_0_21_67 vdd vdd vss vss gf180mcu_fd_sc_mcu7t5v0__fill_2
XANTENNA__1082__CLK clknet_3_2__leaf_clk_i vdd vdd vss vss gf180mcu_fd_sc_mcu7t5v0__antenna
XFILLER_0_24_177 vdd vdd vss vss gf180mcu_fd_sc_mcu7t5v0__fill_1
X_0800_ _0326_ _0331_ net34 _0332_ vdd vdd vss vss gf180mcu_fd_sc_mcu7t5v0__oai21_1
X_0662_ net51 _0218_ _0219_ vdd vdd vss vss gf180mcu_fd_sc_mcu7t5v0__nand2_1
X_0593_ _0088_ _0155_ vdd vdd vss vss gf180mcu_fd_sc_mcu7t5v0__buf_1
XANTENNA__0837__B _0318_ vdd vdd vss vss gf180mcu_fd_sc_mcu7t5v0__antenna
X_1076_ _0048_ clknet_3_0__leaf_clk_i dest\[2\] vdd vdd vss vss gf180mcu_fd_sc_mcu7t5v0__dffq_1
XFILLER_0_15_100 vdd vdd vss vss gf180mcu_fd_sc_mcu7t5v0__fill_2
X_0929_ _0434_ _0065_ vdd vdd vss vss gf180mcu_fd_sc_mcu7t5v0__clkinv_1
XPHY_EDGE_ROW_7_Left_43 vdd vss gf180mcu_fd_sc_mcu7t5v0__endcap
Xwrapped_mc14500_72 io_out[5] vdd vdd vss vss gf180mcu_fd_sc_mcu7t5v0__tiel
XFILLER_0_16_34 vdd vdd vss vss gf180mcu_fd_sc_mcu7t5v0__fill_1
XFILLER_0_16_56 vdd vdd vss vss gf180mcu_fd_sc_mcu7t5v0__fillcap_16
XTAP_TAPCELL_ROW_29_194 vdd vss gf180mcu_fd_sc_mcu7t5v0__filltie
X_0645_ net45 _0204_ _0205_ vdd vdd vss vss gf180mcu_fd_sc_mcu7t5v0__nand2_1
X_0714_ dia\[3\] _0246_ _0260_ _0261_ vdd vdd vss vss gf180mcu_fd_sc_mcu7t5v0__oai21_1
XFILLER_0_12_136 vdd vdd vss vss gf180mcu_fd_sc_mcu7t5v0__fillcap_4
X_0576_ _0138_ scratch\[0\] _0142_ vdd vdd vss vss gf180mcu_fd_sc_mcu7t5v0__nand2_1