* NGSPICE file created from wrapped_qcpu.ext - technology: gf180mcuD

* Black-box entry subcircuit for gf180mcu_fd_sc_mcu7t5v0__xor2_1 abstract view
.subckt gf180mcu_fd_sc_mcu7t5v0__xor2_1 A1 A2 Z VDD VNW VPW VSS
.ends

* Black-box entry subcircuit for gf180mcu_fd_sc_mcu7t5v0__antenna abstract view
.subckt gf180mcu_fd_sc_mcu7t5v0__antenna I VDD VNW VPW VSS
.ends

* Black-box entry subcircuit for gf180mcu_fd_sc_mcu7t5v0__aoi21_1 abstract view
.subckt gf180mcu_fd_sc_mcu7t5v0__aoi21_1 A1 A2 B ZN VDD VNW VPW VSS
.ends

* Black-box entry subcircuit for gf180mcu_fd_sc_mcu7t5v0__buf_1 abstract view
.subckt gf180mcu_fd_sc_mcu7t5v0__buf_1 I Z VDD VNW VPW VSS
.ends

* Black-box entry subcircuit for gf180mcu_fd_sc_mcu7t5v0__filltie abstract view
.subckt gf180mcu_fd_sc_mcu7t5v0__filltie VDD VSS
.ends

* Black-box entry subcircuit for gf180mcu_fd_sc_mcu7t5v0__oai21_1 abstract view
.subckt gf180mcu_fd_sc_mcu7t5v0__oai21_1 A1 A2 B ZN VDD VNW VPW VSS
.ends

* Black-box entry subcircuit for gf180mcu_fd_sc_mcu7t5v0__aoi22_1 abstract view
.subckt gf180mcu_fd_sc_mcu7t5v0__aoi22_1 A1 A2 B1 B2 ZN VDD VNW VPW VSS
.ends

* Black-box entry subcircuit for gf180mcu_fd_sc_mcu7t5v0__nand2_1 abstract view
.subckt gf180mcu_fd_sc_mcu7t5v0__nand2_1 A1 A2 ZN VDD VNW VPW VSS
.ends

* Black-box entry subcircuit for gf180mcu_fd_sc_mcu7t5v0__fill_2 abstract view
.subckt gf180mcu_fd_sc_mcu7t5v0__fill_2 VDD VNW VPW VSS
.ends

* Black-box entry subcircuit for gf180mcu_fd_sc_mcu7t5v0__clkbuf_2 abstract view
.subckt gf180mcu_fd_sc_mcu7t5v0__clkbuf_2 I Z VDD VNW VPW VSS
.ends

* Black-box entry subcircuit for gf180mcu_fd_sc_mcu7t5v0__fillcap_8 abstract view
.subckt gf180mcu_fd_sc_mcu7t5v0__fillcap_8 VDD VNW VPW VSS
.ends

* Black-box entry subcircuit for gf180mcu_fd_sc_mcu7t5v0__aoi211_1 abstract view
.subckt gf180mcu_fd_sc_mcu7t5v0__aoi211_1 A1 A2 B C ZN VDD VNW VPW VSS
.ends

* Black-box entry subcircuit for gf180mcu_fd_sc_mcu7t5v0__and3_1 abstract view
.subckt gf180mcu_fd_sc_mcu7t5v0__and3_1 A1 A2 A3 Z VDD VNW VPW VSS
.ends

* Black-box entry subcircuit for gf180mcu_fd_sc_mcu7t5v0__fillcap_4 abstract view
.subckt gf180mcu_fd_sc_mcu7t5v0__fillcap_4 VDD VNW VPW VSS
.ends

* Black-box entry subcircuit for gf180mcu_fd_sc_mcu7t5v0__fill_1 abstract view
.subckt gf180mcu_fd_sc_mcu7t5v0__fill_1 VDD VNW VPW VSS
.ends

* Black-box entry subcircuit for gf180mcu_fd_sc_mcu7t5v0__mux2_2 abstract view
.subckt gf180mcu_fd_sc_mcu7t5v0__mux2_2 I0 I1 S Z VDD VNW VPW VSS
.ends

* Black-box entry subcircuit for gf180mcu_fd_sc_mcu7t5v0__clkbuf_1 abstract view
.subckt gf180mcu_fd_sc_mcu7t5v0__clkbuf_1 I Z VDD VNW VPW VSS
.ends

* Black-box entry subcircuit for gf180mcu_fd_sc_mcu7t5v0__dffq_2 abstract view
.subckt gf180mcu_fd_sc_mcu7t5v0__dffq_2 D CLK Q VDD VNW VPW VSS
.ends

* Black-box entry subcircuit for gf180mcu_fd_sc_mcu7t5v0__dffq_1 abstract view
.subckt gf180mcu_fd_sc_mcu7t5v0__dffq_1 D CLK Q VDD VNW VPW VSS
.ends

* Black-box entry subcircuit for gf180mcu_fd_sc_mcu7t5v0__clkbuf_16 abstract view
.subckt gf180mcu_fd_sc_mcu7t5v0__clkbuf_16 I Z VDD VNW VPW VSS
.ends

* Black-box entry subcircuit for gf180mcu_fd_sc_mcu7t5v0__aoi22_4 abstract view
.subckt gf180mcu_fd_sc_mcu7t5v0__aoi22_4 A1 A2 B1 B2 ZN VDD VNW VPW VSS
.ends

* Black-box entry subcircuit for gf180mcu_fd_sc_mcu7t5v0__clkinv_1 abstract view
.subckt gf180mcu_fd_sc_mcu7t5v0__clkinv_1 I ZN VDD VNW VPW VSS
.ends

* Black-box entry subcircuit for gf180mcu_fd_sc_mcu7t5v0__nor2_1 abstract view
.subckt gf180mcu_fd_sc_mcu7t5v0__nor2_1 A1 A2 ZN VDD VNW VPW VSS
.ends

* Black-box entry subcircuit for gf180mcu_fd_sc_mcu7t5v0__nand3_1 abstract view
.subckt gf180mcu_fd_sc_mcu7t5v0__nand3_1 A1 A2 A3 ZN VDD VNW VPW VSS
.ends

* Black-box entry subcircuit for gf180mcu_fd_sc_mcu7t5v0__and2_1 abstract view
.subckt gf180mcu_fd_sc_mcu7t5v0__and2_1 A1 A2 Z VDD VNW VPW VSS
.ends

* Black-box entry subcircuit for gf180mcu_fd_sc_mcu7t5v0__aoi211_2 abstract view
.subckt gf180mcu_fd_sc_mcu7t5v0__aoi211_2 A1 A2 B C ZN VDD VNW VPW VSS
.ends

* Black-box entry subcircuit for gf180mcu_fd_sc_mcu7t5v0__aoi21_2 abstract view
.subckt gf180mcu_fd_sc_mcu7t5v0__aoi21_2 A1 A2 B ZN VDD VNW VPW VSS
.ends

* Black-box entry subcircuit for gf180mcu_fd_sc_mcu7t5v0__oai211_1 abstract view
.subckt gf180mcu_fd_sc_mcu7t5v0__oai211_1 A1 A2 B C ZN VDD VNW VPW VSS
.ends

* Black-box entry subcircuit for gf180mcu_fd_sc_mcu7t5v0__nand2_2 abstract view
.subckt gf180mcu_fd_sc_mcu7t5v0__nand2_2 A1 A2 ZN VDD VNW VPW VSS
.ends

* Black-box entry subcircuit for gf180mcu_fd_sc_mcu7t5v0__fillcap_16 abstract view
.subckt gf180mcu_fd_sc_mcu7t5v0__fillcap_16 VDD VNW VPW VSS
.ends

* Black-box entry subcircuit for gf180mcu_fd_sc_mcu7t5v0__nand4_2 abstract view
.subckt gf180mcu_fd_sc_mcu7t5v0__nand4_2 A1 A2 A3 A4 ZN VDD VNW VPW VSS
.ends

* Black-box entry subcircuit for gf180mcu_fd_sc_mcu7t5v0__nor2_2 abstract view
.subckt gf180mcu_fd_sc_mcu7t5v0__nor2_2 A1 A2 ZN VDD VNW VPW VSS
.ends

* Black-box entry subcircuit for gf180mcu_fd_sc_mcu7t5v0__endcap abstract view
.subckt gf180mcu_fd_sc_mcu7t5v0__endcap VDD VSS
.ends

* Black-box entry subcircuit for gf180mcu_fd_sc_mcu7t5v0__buf_2 abstract view
.subckt gf180mcu_fd_sc_mcu7t5v0__buf_2 I Z VDD VNW VPW VSS
.ends

* Black-box entry subcircuit for gf180mcu_fd_sc_mcu7t5v0__aoi221_1 abstract view
.subckt gf180mcu_fd_sc_mcu7t5v0__aoi221_1 A1 A2 B1 B2 C ZN VDD VNW VPW VSS
.ends

* Black-box entry subcircuit for gf180mcu_fd_sc_mcu7t5v0__or2_1 abstract view
.subckt gf180mcu_fd_sc_mcu7t5v0__or2_1 A1 A2 Z VDD VNW VPW VSS
.ends

* Black-box entry subcircuit for gf180mcu_fd_sc_mcu7t5v0__xnor2_1 abstract view
.subckt gf180mcu_fd_sc_mcu7t5v0__xnor2_1 A1 A2 ZN VDD VNW VPW VSS
.ends

* Black-box entry subcircuit for gf180mcu_fd_sc_mcu7t5v0__nand3_2 abstract view
.subckt gf180mcu_fd_sc_mcu7t5v0__nand3_2 A1 A2 A3 ZN VDD VNW VPW VSS
.ends

* Black-box entry subcircuit for gf180mcu_fd_sc_mcu7t5v0__fillcap_32 abstract view
.subckt gf180mcu_fd_sc_mcu7t5v0__fillcap_32 VDD VNW VPW VSS
.ends

* Black-box entry subcircuit for gf180mcu_fd_sc_mcu7t5v0__nor4_4 abstract view
.subckt gf180mcu_fd_sc_mcu7t5v0__nor4_4 A1 A2 A3 A4 ZN VDD VNW VPW VSS
.ends

* Black-box entry subcircuit for gf180mcu_fd_sc_mcu7t5v0__buf_4 abstract view
.subckt gf180mcu_fd_sc_mcu7t5v0__buf_4 I Z VDD VNW VPW VSS
.ends

* Black-box entry subcircuit for gf180mcu_fd_sc_mcu7t5v0__clkinv_2 abstract view
.subckt gf180mcu_fd_sc_mcu7t5v0__clkinv_2 I ZN VDD VNW VPW VSS
.ends

* Black-box entry subcircuit for gf180mcu_fd_sc_mcu7t5v0__fillcap_64 abstract view
.subckt gf180mcu_fd_sc_mcu7t5v0__fillcap_64 VDD VNW VPW VSS
.ends

* Black-box entry subcircuit for gf180mcu_fd_sc_mcu7t5v0__aoi22_2 abstract view
.subckt gf180mcu_fd_sc_mcu7t5v0__aoi22_2 A1 A2 B1 B2 ZN VDD VNW VPW VSS
.ends

* Black-box entry subcircuit for gf180mcu_fd_sc_mcu7t5v0__inv_1 abstract view
.subckt gf180mcu_fd_sc_mcu7t5v0__inv_1 I ZN VDD VNW VPW VSS
.ends

* Black-box entry subcircuit for gf180mcu_fd_sc_mcu7t5v0__nor3_1 abstract view
.subckt gf180mcu_fd_sc_mcu7t5v0__nor3_1 A1 A2 A3 ZN VDD VNW VPW VSS
.ends

* Black-box entry subcircuit for gf180mcu_fd_sc_mcu7t5v0__nand3_4 abstract view
.subckt gf180mcu_fd_sc_mcu7t5v0__nand3_4 A1 A2 A3 ZN VDD VNW VPW VSS
.ends

* Black-box entry subcircuit for gf180mcu_fd_sc_mcu7t5v0__clkinv_4 abstract view
.subckt gf180mcu_fd_sc_mcu7t5v0__clkinv_4 I ZN VDD VNW VPW VSS
.ends

* Black-box entry subcircuit for gf180mcu_fd_sc_mcu7t5v0__buf_8 abstract view
.subckt gf180mcu_fd_sc_mcu7t5v0__buf_8 I Z VDD VNW VPW VSS
.ends

* Black-box entry subcircuit for gf180mcu_fd_sc_mcu7t5v0__clkbuf_3 abstract view
.subckt gf180mcu_fd_sc_mcu7t5v0__clkbuf_3 I Z VDD VNW VPW VSS
.ends

* Black-box entry subcircuit for gf180mcu_fd_sc_mcu7t5v0__aoi221_2 abstract view
.subckt gf180mcu_fd_sc_mcu7t5v0__aoi221_2 A1 A2 B1 B2 C ZN VDD VNW VPW VSS
.ends

* Black-box entry subcircuit for gf180mcu_fd_sc_mcu7t5v0__oai22_1 abstract view
.subckt gf180mcu_fd_sc_mcu7t5v0__oai22_1 A1 A2 B1 B2 ZN VDD VNW VPW VSS
.ends

* Black-box entry subcircuit for gf180mcu_fd_sc_mcu7t5v0__oai33_4 abstract view
.subckt gf180mcu_fd_sc_mcu7t5v0__oai33_4 A1 A2 A3 B1 B2 B3 ZN VDD VNW VPW VSS
.ends

* Black-box entry subcircuit for gf180mcu_fd_sc_mcu7t5v0__mux4_1 abstract view
.subckt gf180mcu_fd_sc_mcu7t5v0__mux4_1 I0 I1 I2 I3 S0 S1 Z VDD VNW VPW VSS
.ends

* Black-box entry subcircuit for gf180mcu_fd_sc_mcu7t5v0__clkbuf_8 abstract view
.subckt gf180mcu_fd_sc_mcu7t5v0__clkbuf_8 I Z VDD VNW VPW VSS
.ends

* Black-box entry subcircuit for gf180mcu_fd_sc_mcu7t5v0__oai221_1 abstract view
.subckt gf180mcu_fd_sc_mcu7t5v0__oai221_1 A1 A2 B1 B2 C ZN VDD VNW VPW VSS
.ends

* Black-box entry subcircuit for gf180mcu_fd_sc_mcu7t5v0__and2_2 abstract view
.subckt gf180mcu_fd_sc_mcu7t5v0__and2_2 A1 A2 Z VDD VNW VPW VSS
.ends

* Black-box entry subcircuit for gf180mcu_fd_sc_mcu7t5v0__oai221_4 abstract view
.subckt gf180mcu_fd_sc_mcu7t5v0__oai221_4 A1 A2 B1 B2 C ZN VDD VNW VPW VSS
.ends

* Black-box entry subcircuit for gf180mcu_fd_sc_mcu7t5v0__oai21_2 abstract view
.subckt gf180mcu_fd_sc_mcu7t5v0__oai21_2 A1 A2 B ZN VDD VNW VPW VSS
.ends

* Black-box entry subcircuit for gf180mcu_fd_sc_mcu7t5v0__nor3_2 abstract view
.subckt gf180mcu_fd_sc_mcu7t5v0__nor3_2 A1 A2 A3 ZN VDD VNW VPW VSS
.ends

* Black-box entry subcircuit for gf180mcu_fd_sc_mcu7t5v0__xor3_1 abstract view
.subckt gf180mcu_fd_sc_mcu7t5v0__xor3_1 A1 A2 A3 Z VDD VNW VPW VSS
.ends

* Black-box entry subcircuit for gf180mcu_fd_sc_mcu7t5v0__or3_1 abstract view
.subckt gf180mcu_fd_sc_mcu7t5v0__or3_1 A1 A2 A3 Z VDD VNW VPW VSS
.ends

* Black-box entry subcircuit for gf180mcu_fd_sc_mcu7t5v0__oai211_4 abstract view
.subckt gf180mcu_fd_sc_mcu7t5v0__oai211_4 A1 A2 B C ZN VDD VNW VPW VSS
.ends

* Black-box entry subcircuit for gf180mcu_fd_sc_mcu7t5v0__aoi221_4 abstract view
.subckt gf180mcu_fd_sc_mcu7t5v0__aoi221_4 A1 A2 B1 B2 C ZN VDD VNW VPW VSS
.ends

* Black-box entry subcircuit for gf180mcu_fd_sc_mcu7t5v0__nor4_2 abstract view
.subckt gf180mcu_fd_sc_mcu7t5v0__nor4_2 A1 A2 A3 A4 ZN VDD VNW VPW VSS
.ends

* Black-box entry subcircuit for gf180mcu_fd_sc_mcu7t5v0__or4_1 abstract view
.subckt gf180mcu_fd_sc_mcu7t5v0__or4_1 A1 A2 A3 A4 Z VDD VNW VPW VSS
.ends

* Black-box entry subcircuit for gf180mcu_fd_sc_mcu7t5v0__nand4_1 abstract view
.subckt gf180mcu_fd_sc_mcu7t5v0__nand4_1 A1 A2 A3 A4 ZN VDD VNW VPW VSS
.ends

* Black-box entry subcircuit for gf180mcu_fd_sc_mcu7t5v0__nand2_4 abstract view
.subckt gf180mcu_fd_sc_mcu7t5v0__nand2_4 A1 A2 ZN VDD VNW VPW VSS
.ends

* Black-box entry subcircuit for gf180mcu_fd_sc_mcu7t5v0__oai221_2 abstract view
.subckt gf180mcu_fd_sc_mcu7t5v0__oai221_2 A1 A2 B1 B2 C ZN VDD VNW VPW VSS
.ends

* Black-box entry subcircuit for gf180mcu_fd_sc_mcu7t5v0__aoi222_2 abstract view
.subckt gf180mcu_fd_sc_mcu7t5v0__aoi222_2 A1 A2 B1 B2 C1 C2 ZN VDD VNW VPW VSS
.ends

* Black-box entry subcircuit for gf180mcu_fd_sc_mcu7t5v0__oai32_1 abstract view
.subckt gf180mcu_fd_sc_mcu7t5v0__oai32_1 A1 A2 A3 B1 B2 ZN VDD VNW VPW VSS
.ends

* Black-box entry subcircuit for gf180mcu_fd_sc_mcu7t5v0__and4_1 abstract view
.subckt gf180mcu_fd_sc_mcu7t5v0__and4_1 A1 A2 A3 A4 Z VDD VNW VPW VSS
.ends

* Black-box entry subcircuit for gf180mcu_fd_sc_mcu7t5v0__clkinv_3 abstract view
.subckt gf180mcu_fd_sc_mcu7t5v0__clkinv_3 I ZN VDD VNW VPW VSS
.ends

* Black-box entry subcircuit for gf180mcu_fd_sc_mcu7t5v0__oai211_2 abstract view
.subckt gf180mcu_fd_sc_mcu7t5v0__oai211_2 A1 A2 B C ZN VDD VNW VPW VSS
.ends

* Black-box entry subcircuit for gf180mcu_fd_sc_mcu7t5v0__nor4_1 abstract view
.subckt gf180mcu_fd_sc_mcu7t5v0__nor4_1 A1 A2 A3 A4 ZN VDD VNW VPW VSS
.ends

* Black-box entry subcircuit for gf180mcu_fd_sc_mcu7t5v0__oai22_2 abstract view
.subckt gf180mcu_fd_sc_mcu7t5v0__oai22_2 A1 A2 B1 B2 ZN VDD VNW VPW VSS
.ends

* Black-box entry subcircuit for gf180mcu_fd_sc_mcu7t5v0__nand4_4 abstract view
.subckt gf180mcu_fd_sc_mcu7t5v0__nand4_4 A1 A2 A3 A4 ZN VDD VNW VPW VSS
.ends

* Black-box entry subcircuit for gf180mcu_fd_sc_mcu7t5v0__nor2_4 abstract view
.subckt gf180mcu_fd_sc_mcu7t5v0__nor2_4 A1 A2 ZN VDD VNW VPW VSS
.ends

* Black-box entry subcircuit for gf180mcu_fd_sc_mcu7t5v0__oai31_1 abstract view
.subckt gf180mcu_fd_sc_mcu7t5v0__oai31_1 A1 A2 A3 B ZN VDD VNW VPW VSS
.ends

* Black-box entry subcircuit for gf180mcu_fd_sc_mcu7t5v0__xnor3_1 abstract view
.subckt gf180mcu_fd_sc_mcu7t5v0__xnor3_1 A1 A2 A3 ZN VDD VNW VPW VSS
.ends

* Black-box entry subcircuit for gf180mcu_fd_sc_mcu7t5v0__mux4_2 abstract view
.subckt gf180mcu_fd_sc_mcu7t5v0__mux4_2 I0 I1 I2 I3 S0 S1 Z VDD VNW VPW VSS
.ends

* Black-box entry subcircuit for gf180mcu_fd_sc_mcu7t5v0__inv_2 abstract view
.subckt gf180mcu_fd_sc_mcu7t5v0__inv_2 I ZN VDD VNW VPW VSS
.ends

* Black-box entry subcircuit for gf180mcu_fd_sc_mcu7t5v0__nor3_4 abstract view
.subckt gf180mcu_fd_sc_mcu7t5v0__nor3_4 A1 A2 A3 ZN VDD VNW VPW VSS
.ends

* Black-box entry subcircuit for gf180mcu_fd_sc_mcu7t5v0__xor2_2 abstract view
.subckt gf180mcu_fd_sc_mcu7t5v0__xor2_2 A1 A2 Z VDD VNW VPW VSS
.ends

* Black-box entry subcircuit for gf180mcu_fd_sc_mcu7t5v0__oai21_4 abstract view
.subckt gf180mcu_fd_sc_mcu7t5v0__oai21_4 A1 A2 B ZN VDD VNW VPW VSS
.ends

* Black-box entry subcircuit for gf180mcu_fd_sc_mcu7t5v0__aoi211_4 abstract view
.subckt gf180mcu_fd_sc_mcu7t5v0__aoi211_4 A1 A2 B C ZN VDD VNW VPW VSS
.ends

* Black-box entry subcircuit for gf180mcu_fd_sc_mcu7t5v0__aoi222_4 abstract view
.subckt gf180mcu_fd_sc_mcu7t5v0__aoi222_4 A1 A2 B1 B2 C1 C2 ZN VDD VNW VPW VSS
.ends

* Black-box entry subcircuit for gf180mcu_fd_sc_mcu7t5v0__oai31_2 abstract view
.subckt gf180mcu_fd_sc_mcu7t5v0__oai31_2 A1 A2 A3 B ZN VDD VNW VPW VSS
.ends

* Black-box entry subcircuit for gf180mcu_fd_sc_mcu7t5v0__or4_2 abstract view
.subckt gf180mcu_fd_sc_mcu7t5v0__or4_2 A1 A2 A3 A4 Z VDD VNW VPW VSS
.ends

* Black-box entry subcircuit for gf180mcu_fd_sc_mcu7t5v0__aoi21_4 abstract view
.subckt gf180mcu_fd_sc_mcu7t5v0__aoi21_4 A1 A2 B ZN VDD VNW VPW VSS
.ends

* Black-box entry subcircuit for gf180mcu_fd_sc_mcu7t5v0__tiel abstract view
.subckt gf180mcu_fd_sc_mcu7t5v0__tiel ZN VDD VNW VPW VSS
.ends

* Black-box entry subcircuit for gf180mcu_fd_sc_mcu7t5v0__mux4_4 abstract view
.subckt gf180mcu_fd_sc_mcu7t5v0__mux4_4 I0 I1 I2 I3 S0 S1 Z VDD VNW VPW VSS
.ends

* Black-box entry subcircuit for gf180mcu_fd_sc_mcu7t5v0__dffq_4 abstract view
.subckt gf180mcu_fd_sc_mcu7t5v0__dffq_4 D CLK Q VDD VNW VPW VSS
.ends

* Black-box entry subcircuit for gf180mcu_fd_sc_mcu7t5v0__tieh abstract view
.subckt gf180mcu_fd_sc_mcu7t5v0__tieh Z VDD VNW VPW VSS
.ends

* Black-box entry subcircuit for gf180mcu_fd_sc_mcu7t5v0__buf_3 abstract view
.subckt gf180mcu_fd_sc_mcu7t5v0__buf_3 I Z VDD VNW VPW VSS
.ends

* Black-box entry subcircuit for gf180mcu_fd_sc_mcu7t5v0__xor3_2 abstract view
.subckt gf180mcu_fd_sc_mcu7t5v0__xor3_2 A1 A2 A3 Z VDD VNW VPW VSS
.ends

* Black-box entry subcircuit for gf180mcu_fd_sc_mcu7t5v0__or3_2 abstract view
.subckt gf180mcu_fd_sc_mcu7t5v0__or3_2 A1 A2 A3 Z VDD VNW VPW VSS
.ends

* Black-box entry subcircuit for gf180mcu_fd_sc_mcu7t5v0__and3_2 abstract view
.subckt gf180mcu_fd_sc_mcu7t5v0__and3_2 A1 A2 A3 Z VDD VNW VPW VSS
.ends

* Black-box entry subcircuit for gf180mcu_fd_sc_mcu7t5v0__oai33_1 abstract view
.subckt gf180mcu_fd_sc_mcu7t5v0__oai33_1 A1 A2 A3 B1 B2 B3 ZN VDD VNW VPW VSS
.ends

* Black-box entry subcircuit for gf180mcu_fd_sc_mcu7t5v0__or2_2 abstract view
.subckt gf180mcu_fd_sc_mcu7t5v0__or2_2 A1 A2 Z VDD VNW VPW VSS
.ends

* Black-box entry subcircuit for gf180mcu_fd_sc_mcu7t5v0__oai222_4 abstract view
.subckt gf180mcu_fd_sc_mcu7t5v0__oai222_4 A1 A2 B1 B2 C1 C2 ZN VDD VNW VPW VSS
.ends

* Black-box entry subcircuit for gf180mcu_fd_sc_mcu7t5v0__dlya_2 abstract view
.subckt gf180mcu_fd_sc_mcu7t5v0__dlya_2 I Z VDD VNW VPW VSS
.ends

.subckt wrapped_qcpu custom_settings[0] custom_settings[10] custom_settings[11] custom_settings[12]
+ custom_settings[13] custom_settings[14] custom_settings[15] custom_settings[16]
+ custom_settings[17] custom_settings[18] custom_settings[19] custom_settings[1] custom_settings[20]
+ custom_settings[21] custom_settings[22] custom_settings[23] custom_settings[24]
+ custom_settings[25] custom_settings[26] custom_settings[27] custom_settings[28]
+ custom_settings[29] custom_settings[2] custom_settings[30] custom_settings[31] custom_settings[3]
+ custom_settings[4] custom_settings[5] custom_settings[6] custom_settings[7] custom_settings[8]
+ custom_settings[9] io_in[0] io_in[10] io_in[11] io_in[12] io_in[13] io_in[14] io_in[15]
+ io_in[16] io_in[17] io_in[18] io_in[19] io_in[1] io_in[20] io_in[21] io_in[22] io_in[23]
+ io_in[24] io_in[25] io_in[26] io_in[27] io_in[28] io_in[29] io_in[2] io_in[30] io_in[31]
+ io_in[32] io_in[3] io_in[4] io_in[5] io_in[6] io_in[7] io_in[8] io_in[9] io_oeb[0]
+ io_oeb[10] io_oeb[11] io_oeb[12] io_oeb[13] io_oeb[14] io_oeb[15] io_oeb[16] io_oeb[17]
+ io_oeb[18] io_oeb[19] io_oeb[1] io_oeb[20] io_oeb[21] io_oeb[24] io_oeb[25] io_oeb[26]
+ io_oeb[27] io_oeb[28] io_oeb[29] io_oeb[2] io_oeb[30] io_oeb[31] io_oeb[32] io_oeb[3]
+ io_oeb[4] io_oeb[5] io_oeb[6] io_oeb[7] io_oeb[8] io_oeb[9] io_out[0] io_out[10]
+ io_out[11] io_out[12] io_out[13] io_out[14] io_out[15] io_out[16] io_out[17] io_out[18]
+ io_out[19] io_out[1] io_out[20] io_out[21] io_out[22] io_out[23] io_out[24] io_out[25]
+ io_out[27] io_out[29] io_out[2] io_out[30] io_out[31] io_out[32] io_out[3] io_out[4]
+ io_out[5] io_out[6] io_out[7] io_out[8] io_out[9] rst_n sram_addr[0] sram_addr[1]
+ sram_addr[2] sram_addr[3] sram_addr[4] sram_addr[5] sram_gwe sram_in[0] sram_in[1]
+ sram_in[2] sram_in[3] sram_in[4] sram_in[5] sram_in[6] sram_in[7] sram_out[0] sram_out[1]
+ sram_out[2] sram_out[3] sram_out[4] sram_out[5] sram_out[6] sram_out[7] vdd vss
+ wb_clk_i io_oeb[22] io_oeb[23] io_out[28] io_out[26]
X_05903_ _00764_ _00957_ _01566_ vdd vdd vss vss gf180mcu_fd_sc_mcu7t5v0__xor2_1
XANTENNA__07534__A1 _02480_ vdd vdd vss vss gf180mcu_fd_sc_mcu7t5v0__antenna
X_09671_ _00985_ _04012_ _04796_ _04797_ vdd vdd vss vss gf180mcu_fd_sc_mcu7t5v0__aoi21_1
X_06883_ cpu.timer\[6\] _02509_ vdd vdd vss vss gf180mcu_fd_sc_mcu7t5v0__buf_1
XTAP_TAPCELL_ROW_68_1037 vdd vss gf180mcu_fd_sc_mcu7t5v0__filltie
X_05834_ _01493_ _01495_ _01497_ _01498_ vdd vdd vss vss gf180mcu_fd_sc_mcu7t5v0__oai21_1
X_08622_ cpu.orig_IO_addr_buff\[2\] _03864_ _03865_ _00919_ _03872_ vdd vdd vss vss
+ gf180mcu_fd_sc_mcu7t5v0__aoi22_1
X_08553_ _02394_ _03813_ _03814_ vdd vdd vss vss gf180mcu_fd_sc_mcu7t5v0__nand2_1
XFILLER_0_89_483 vdd vdd vss vss gf180mcu_fd_sc_mcu7t5v0__fill_2
X_05765_ _01149_ _01430_ vdd vdd vss vss gf180mcu_fd_sc_mcu7t5v0__clkbuf_2
XFILLER_0_77_656 vdd vdd vss vss gf180mcu_fd_sc_mcu7t5v0__fillcap_8
XFILLER_0_65_807 vdd vdd vss vss gf180mcu_fd_sc_mcu7t5v0__fill_2
X_08484_ cpu.timer_capture\[12\] _03764_ _03758_ _03765_ vdd vdd vss vss gf180mcu_fd_sc_mcu7t5v0__oai21_1
X_07504_ _02971_ _02987_ _02988_ vdd vdd vss vss gf180mcu_fd_sc_mcu7t5v0__nand2_1
X_07435_ _01636_ _02911_ _02922_ _00694_ _00191_ vdd vdd vss vss gf180mcu_fd_sc_mcu7t5v0__aoi211_1
X_05696_ net80 _01357_ _01359_ _01361_ vdd vdd vss vss gf180mcu_fd_sc_mcu7t5v0__and3_1
XFILLER_0_77_678 vdd vdd vss vss gf180mcu_fd_sc_mcu7t5v0__fillcap_8
XFILLER_0_9_422 vdd vdd vss vss gf180mcu_fd_sc_mcu7t5v0__fillcap_4
XFILLER_0_9_411 vdd vdd vss vss gf180mcu_fd_sc_mcu7t5v0__fill_1
XTAP_TAPCELL_ROW_61_960 vdd vss gf180mcu_fd_sc_mcu7t5v0__filltie
XTAP_TAPCELL_ROW_33_640 vdd vss gf180mcu_fd_sc_mcu7t5v0__filltie
X_07366_ _02860_ _02861_ _02862_ vdd vdd vss vss gf180mcu_fd_sc_mcu7t5v0__nand2_1
X_09105_ _04305_ _04306_ _04110_ _04307_ vdd vdd vss vss gf180mcu_fd_sc_mcu7t5v0__oai21_1
XFILLER_0_60_501 vdd vdd vss vss gf180mcu_fd_sc_mcu7t5v0__fill_2
X_07297_ _02809_ _02815_ vdd vdd vss vss gf180mcu_fd_sc_mcu7t5v0__buf_1
XFILLER_0_17_277 vdd vdd vss vss gf180mcu_fd_sc_mcu7t5v0__fill_1
X_06317_ _01955_ _01956_ _00745_ _01974_ vdd vdd vss vss gf180mcu_fd_sc_mcu7t5v0__mux2_2
X_06248_ _01905_ _00021_ vdd vdd vss vss gf180mcu_fd_sc_mcu7t5v0__clkbuf_1
XTAP_TAPCELL_ROW_79_1166 vdd vss gf180mcu_fd_sc_mcu7t5v0__filltie
X_09036_ _04070_ _02569_ _04240_ vdd vdd vss vss gf180mcu_fd_sc_mcu7t5v0__nand2_1
XANTENNA__06462__I _02105_ vdd vdd vss vss gf180mcu_fd_sc_mcu7t5v0__antenna
XFILLER_0_32_247 vdd vdd vss vss gf180mcu_fd_sc_mcu7t5v0__fillcap_4
XTAP_TAPCELL_ROW_92_1311 vdd vss gf180mcu_fd_sc_mcu7t5v0__filltie
XFILLER_0_60_589 vdd vdd vss vss gf180mcu_fd_sc_mcu7t5v0__fill_1
XANTENNA__05078__I _00753_ vdd vdd vss vss gf180mcu_fd_sc_mcu7t5v0__antenna
X_06179_ cpu.timer_top\[15\] _01411_ _01252_ _01838_ vdd vdd vss vss gf180mcu_fd_sc_mcu7t5v0__aoi21_1
XFILLER_0_111_680 vdd vdd vss vss gf180mcu_fd_sc_mcu7t5v0__fill_2
X_09938_ _00197_ clknet_leaf_41_wb_clk_i cpu.spi.busy vdd vdd vss vss gf180mcu_fd_sc_mcu7t5v0__dffq_2
XTAP_TAPCELL_ROW_5_310 vdd vss gf180mcu_fd_sc_mcu7t5v0__filltie
X_09869_ _00128_ clknet_leaf_96_wb_clk_i cpu.regs\[0\]\[1\] vdd vdd vss vss gf180mcu_fd_sc_mcu7t5v0__dffq_1
XANTENNA_output37_I net37 vdd vdd vss vss gf180mcu_fd_sc_mcu7t5v0__antenna
XFILLER_0_68_667 vdd vdd vss vss gf180mcu_fd_sc_mcu7t5v0__fill_2
XFILLER_0_68_634 vdd vdd vss vss gf180mcu_fd_sc_mcu7t5v0__fill_2
XANTENNA_clkbuf_leaf_104_wb_clk_i_I clknet_4_1_0_wb_clk_i vdd vdd vss vss gf180mcu_fd_sc_mcu7t5v0__antenna
XFILLER_0_68_678 vdd vdd vss vss gf180mcu_fd_sc_mcu7t5v0__fill_1
XFILLER_0_95_486 vdd vdd vss vss gf180mcu_fd_sc_mcu7t5v0__fill_2
XFILLER_0_82_103 vdd vdd vss vss gf180mcu_fd_sc_mcu7t5v0__fill_2
XFILLER_0_67_188 vdd vdd vss vss gf180mcu_fd_sc_mcu7t5v0__fill_1
XFILLER_0_36_531 vdd vdd vss vss gf180mcu_fd_sc_mcu7t5v0__fill_2
XANTENNA__05697__B _01190_ vdd vdd vss vss gf180mcu_fd_sc_mcu7t5v0__antenna
XFILLER_0_63_383 vdd vdd vss vss gf180mcu_fd_sc_mcu7t5v0__fillcap_8
XFILLER_0_36_586 vdd vdd vss vss gf180mcu_fd_sc_mcu7t5v0__fill_2
XFILLER_0_36_597 vdd vdd vss vss gf180mcu_fd_sc_mcu7t5v0__fillcap_8
XANTENNA__08073__B _03430_ vdd vdd vss vss gf180mcu_fd_sc_mcu7t5v0__antenna
XFILLER_0_51_556 vdd vdd vss vss gf180mcu_fd_sc_mcu7t5v0__fill_2
XTAP_TAPCELL_ROW_11_378 vdd vss gf180mcu_fd_sc_mcu7t5v0__filltie
Xrebuffer7 _02128_ net121 vdd vdd vss vss gf180mcu_fd_sc_mcu7t5v0__clkbuf_1
XANTENNA__07417__B _02675_ vdd vdd vss vss gf180mcu_fd_sc_mcu7t5v0__antenna
XANTENNA__06567__A2 _02223_ vdd vdd vss vss gf180mcu_fd_sc_mcu7t5v0__antenna
Xclkbuf_leaf_60_wb_clk_i clknet_4_14_0_wb_clk_i clknet_leaf_60_wb_clk_i vdd vdd vss
+ vss gf180mcu_fd_sc_mcu7t5v0__clkbuf_16
X_10009_ _00268_ clknet_leaf_33_wb_clk_i cpu.uart.receiving vdd vdd vss vss gf180mcu_fd_sc_mcu7t5v0__dffq_1
XFILLER_0_59_601 vdd vdd vss vss gf180mcu_fd_sc_mcu7t5v0__fill_2
X_05550_ _01212_ _01214_ _01215_ _01216_ vdd vdd vss vss gf180mcu_fd_sc_mcu7t5v0__oai21_1
XFILLER_0_59_645 vdd vdd vss vss gf180mcu_fd_sc_mcu7t5v0__fill_1
XFILLER_0_58_111 vdd vdd vss vss gf180mcu_fd_sc_mcu7t5v0__fill_2
XTAP_TAPCELL_ROW_47_798 vdd vss gf180mcu_fd_sc_mcu7t5v0__filltie
XTAP_TAPCELL_ROW_19_478 vdd vss gf180mcu_fd_sc_mcu7t5v0__filltie
XFILLER_0_59_689 vdd vdd vss vss gf180mcu_fd_sc_mcu7t5v0__fill_2
XFILLER_0_58_155 vdd vdd vss vss gf180mcu_fd_sc_mcu7t5v0__fill_1
XFILLER_0_104_42 vdd vdd vss vss gf180mcu_fd_sc_mcu7t5v0__fill_2
XFILLER_0_104_31 vdd vdd vss vss gf180mcu_fd_sc_mcu7t5v0__fillcap_4
XFILLER_0_73_125 vdd vdd vss vss gf180mcu_fd_sc_mcu7t5v0__fillcap_4
X_05481_ _01115_ _01103_ _01146_ _00983_ _01147_ vdd vdd vss vss gf180mcu_fd_sc_mcu7t5v0__aoi22_4
XFILLER_0_116_205 vdd vdd vss vss gf180mcu_fd_sc_mcu7t5v0__fill_1
X_07220_ _02763_ _02764_ vdd vdd vss vss gf180mcu_fd_sc_mcu7t5v0__clkbuf_2
XFILLER_0_109_290 vdd vdd vss vss gf180mcu_fd_sc_mcu7t5v0__fill_2
XFILLER_0_70_821 vdd vdd vss vss gf180mcu_fd_sc_mcu7t5v0__fill_1
XFILLER_0_54_350 vdd vdd vss vss gf180mcu_fd_sc_mcu7t5v0__fillcap_4
X_07151_ _02722_ _02714_ _02723_ _00106_ vdd vdd vss vss gf180mcu_fd_sc_mcu7t5v0__oai21_1
XFILLER_0_42_523 vdd vdd vss vss gf180mcu_fd_sc_mcu7t5v0__fill_2
XFILLER_0_81_191 vdd vdd vss vss gf180mcu_fd_sc_mcu7t5v0__fillcap_8
X_06102_ _01047_ _01358_ net37 _01762_ vdd vdd vss vss gf180mcu_fd_sc_mcu7t5v0__aoi21_1
XFILLER_0_14_225 vdd vdd vss vss gf180mcu_fd_sc_mcu7t5v0__fill_1
XFILLER_0_14_247 vdd vdd vss vss gf180mcu_fd_sc_mcu7t5v0__fill_2
XANTENNA__06282__I _01938_ vdd vdd vss vss gf180mcu_fd_sc_mcu7t5v0__antenna
X_07082_ cpu.uart.receive_counter\[3\] _02679_ vdd vdd vss vss gf180mcu_fd_sc_mcu7t5v0__clkinv_1
XFILLER_0_2_642 vdd vdd vss vss gf180mcu_fd_sc_mcu7t5v0__fill_1
XFILLER_0_42_578 vdd vdd vss vss gf180mcu_fd_sc_mcu7t5v0__fill_2
X_06033_ _01670_ _01694_ vdd vdd vss vss gf180mcu_fd_sc_mcu7t5v0__clkbuf_2
XFILLER_0_10_453 vdd vdd vss vss gf180mcu_fd_sc_mcu7t5v0__fill_2
XFILLER_0_10_431 vdd vdd vss vss gf180mcu_fd_sc_mcu7t5v0__fill_2
X_07984_ _03371_ _03375_ _00287_ vdd vdd vss vss gf180mcu_fd_sc_mcu7t5v0__nor2_1
X_06935_ _02548_ _02549_ _02550_ _02551_ vdd vdd vss vss gf180mcu_fd_sc_mcu7t5v0__nand3_1
XANTENNA__07507__A1 cpu.timer_top\[10\] vdd vdd vss vss gf180mcu_fd_sc_mcu7t5v0__antenna
X_09723_ _00873_ _01971_ _04839_ vdd vdd vss vss gf180mcu_fd_sc_mcu7t5v0__nor2_1
X_09654_ _01037_ _04780_ _04781_ vdd vdd vss vss gf180mcu_fd_sc_mcu7t5v0__nand2_1
X_06866_ _02470_ _02494_ vdd vdd vss vss gf180mcu_fd_sc_mcu7t5v0__buf_1
XANTENNA__07507__B2 cpu.timer_top\[9\] vdd vdd vss vss gf180mcu_fd_sc_mcu7t5v0__antenna
X_05817_ net8 _01370_ _01481_ vdd vdd vss vss gf180mcu_fd_sc_mcu7t5v0__and2_1
X_08605_ _03850_ _03856_ _01093_ _03857_ vdd vdd vss vss gf180mcu_fd_sc_mcu7t5v0__oai21_1
X_06797_ _02434_ _02437_ vdd vdd vss vss gf180mcu_fd_sc_mcu7t5v0__buf_1
X_09585_ _02532_ _04718_ _04721_ _00542_ vdd vdd vss vss gf180mcu_fd_sc_mcu7t5v0__aoi21_1
X_08536_ _03798_ _03793_ _03800_ _00414_ vdd vdd vss vss gf180mcu_fd_sc_mcu7t5v0__aoi21_1
XFILLER_0_49_166 vdd vdd vss vss gf180mcu_fd_sc_mcu7t5v0__fill_2
XFILLER_0_49_144 vdd vdd vss vss gf180mcu_fd_sc_mcu7t5v0__fill_1
XFILLER_0_37_306 vdd vdd vss vss gf180mcu_fd_sc_mcu7t5v0__fillcap_4
X_05748_ cpu.timer_top\[9\] _01247_ _01249_ _01413_ vdd vdd vss vss gf180mcu_fd_sc_mcu7t5v0__oai21_1
X_05679_ _01314_ _01344_ _01345_ vdd vdd vss vss gf180mcu_fd_sc_mcu7t5v0__nand2_1
X_08467_ _03740_ _03749_ _03750_ _00395_ vdd vdd vss vss gf180mcu_fd_sc_mcu7t5v0__aoi21_1
X_07418_ _02906_ _02907_ _02909_ _00187_ vdd vdd vss vss gf180mcu_fd_sc_mcu7t5v0__aoi21_1
XFILLER_0_107_205 vdd vdd vss vss gf180mcu_fd_sc_mcu7t5v0__fillcap_4
XFILLER_0_92_445 vdd vdd vss vss gf180mcu_fd_sc_mcu7t5v0__fill_2
XFILLER_0_64_158 vdd vdd vss vss gf180mcu_fd_sc_mcu7t5v0__fill_2
XFILLER_0_52_309 vdd vdd vss vss gf180mcu_fd_sc_mcu7t5v0__fillcap_4
X_08398_ _02974_ _03687_ _03693_ vdd vdd vss vss gf180mcu_fd_sc_mcu7t5v0__nor2_1
X_07349_ _01752_ _02840_ _02847_ _00180_ vdd vdd vss vss gf180mcu_fd_sc_mcu7t5v0__oai21_1
XFILLER_0_103_400 vdd vdd vss vss gf180mcu_fd_sc_mcu7t5v0__fill_1
XANTENNA__06246__A1 _01897_ vdd vdd vss vss gf180mcu_fd_sc_mcu7t5v0__antenna
XFILLER_0_103_422 vdd vdd vss vss gf180mcu_fd_sc_mcu7t5v0__fillcap_8
X_10291_ _00549_ clknet_leaf_60_wb_clk_i net72 vdd vdd vss vss gf180mcu_fd_sc_mcu7t5v0__dffq_1
X_09019_ cpu.PC\[4\] _04190_ _04224_ vdd vdd vss vss gf180mcu_fd_sc_mcu7t5v0__nand2_1
XANTENNA__09735__A2 _04846_ vdd vdd vss vss gf180mcu_fd_sc_mcu7t5v0__antenna
XFILLER_0_87_228 vdd vdd vss vss gf180mcu_fd_sc_mcu7t5v0__fill_2
XANTENNA__08068__B _03430_ vdd vdd vss vss gf180mcu_fd_sc_mcu7t5v0__antenna
XFILLER_0_96_773 vdd vdd vss vss gf180mcu_fd_sc_mcu7t5v0__fill_2
XFILLER_0_68_453 vdd vdd vss vss gf180mcu_fd_sc_mcu7t5v0__fill_2
XANTENNA__05080__S1 _00750_ vdd vdd vss vss gf180mcu_fd_sc_mcu7t5v0__antenna
XTAP_TAPCELL_ROW_16_437 vdd vss gf180mcu_fd_sc_mcu7t5v0__filltie
XTAP_TAPCELL_ROW_44_757 vdd vss gf180mcu_fd_sc_mcu7t5v0__filltie
XANTENNA__09671__A1 _00985_ vdd vdd vss vss gf180mcu_fd_sc_mcu7t5v0__antenna
XFILLER_0_55_125 vdd vdd vss vss gf180mcu_fd_sc_mcu7t5v0__fill_1
XANTENNA__06324__I2 _00925_ vdd vdd vss vss gf180mcu_fd_sc_mcu7t5v0__antenna
XFILLER_0_83_489 vdd vdd vss vss gf180mcu_fd_sc_mcu7t5v0__fill_1
XFILLER_0_71_629 vdd vdd vss vss gf180mcu_fd_sc_mcu7t5v0__fill_1
XFILLER_0_55_169 vdd vdd vss vss gf180mcu_fd_sc_mcu7t5v0__fill_2
XFILLER_0_107_772 vdd vdd vss vss gf180mcu_fd_sc_mcu7t5v0__fill_1
XFILLER_0_24_545 vdd vdd vss vss gf180mcu_fd_sc_mcu7t5v0__fill_2
XFILLER_0_59_14 vdd vdd vss vss gf180mcu_fd_sc_mcu7t5v0__fillcap_8
XFILLER_0_11_239 vdd vdd vss vss gf180mcu_fd_sc_mcu7t5v0__fill_2
XANTENNA__07926__I cpu.uart.receive_div_counter\[0\] vdd vdd vss vss gf180mcu_fd_sc_mcu7t5v0__antenna
XANTENNA__08531__B _03774_ vdd vdd vss vss gf180mcu_fd_sc_mcu7t5v0__antenna
XFILLER_0_59_69 vdd vdd vss vss gf180mcu_fd_sc_mcu7t5v0__fill_1
XTAP_TAPCELL_ROW_110_1517 vdd vss gf180mcu_fd_sc_mcu7t5v0__filltie
XFILLER_0_20_773 vdd vdd vss vss gf180mcu_fd_sc_mcu7t5v0__fill_1
X_04981_ _00673_ _00681_ vdd vdd vss vss gf180mcu_fd_sc_mcu7t5v0__clkinv_1
XFILLER_0_75_68 vdd vdd vss vss gf180mcu_fd_sc_mcu7t5v0__fill_2
X_06720_ _00579_ _01921_ _01922_ _02371_ _02372_ vdd vdd vss vss gf180mcu_fd_sc_mcu7t5v0__aoi211_2
X_06651_ _00575_ _02303_ _02304_ vdd vdd vss vss gf180mcu_fd_sc_mcu7t5v0__nand2_1
XTAP_TAPCELL_ROW_65_1007 vdd vss gf180mcu_fd_sc_mcu7t5v0__filltie
X_05602_ _01266_ _01267_ _01268_ vdd vdd vss vss gf180mcu_fd_sc_mcu7t5v0__nand2_1
X_09370_ _02914_ _04558_ vdd vdd vss vss gf180mcu_fd_sc_mcu7t5v0__clkbuf_2
XFILLER_0_19_306 vdd vdd vss vss gf180mcu_fd_sc_mcu7t5v0__fillcap_8
X_06582_ _02182_ _02198_ _02202_ _02238_ vdd vdd vss vss gf180mcu_fd_sc_mcu7t5v0__aoi21_2
X_05533_ _01054_ _01199_ vdd vdd vss vss gf180mcu_fd_sc_mcu7t5v0__clkbuf_1
XANTENNA__09662__A1 _00674_ vdd vdd vss vss gf180mcu_fd_sc_mcu7t5v0__antenna
X_08321_ cpu.timer_div_counter\[6\] _03630_ _03621_ _02404_ _03632_ vdd vdd vss vss
+ gf180mcu_fd_sc_mcu7t5v0__oai211_1
XFILLER_0_24_83 vdd vdd vss vss gf180mcu_fd_sc_mcu7t5v0__fill_1
XANTENNA__07610__B _02930_ vdd vdd vss vss gf180mcu_fd_sc_mcu7t5v0__antenna
X_05464_ _01031_ _01129_ _01130_ vdd vdd vss vss gf180mcu_fd_sc_mcu7t5v0__nand2_1
X_08252_ _03584_ _02365_ _00346_ vdd vdd vss vss gf180mcu_fd_sc_mcu7t5v0__nor2_1
XFILLER_0_46_169 vdd vdd vss vss gf180mcu_fd_sc_mcu7t5v0__fill_2