* NGSPICE file created from wrapped_ay8913.ext - technology: gf180mcuD

* Black-box entry subcircuit for gf180mcu_fd_sc_mcu7t5v0__dffq_1 abstract view
.subckt gf180mcu_fd_sc_mcu7t5v0__dffq_1 D CLK Q VDD VNW VPW VSS
.ends

* Black-box entry subcircuit for gf180mcu_fd_sc_mcu7t5v0__oai21_1 abstract view
.subckt gf180mcu_fd_sc_mcu7t5v0__oai21_1 A1 A2 B ZN VDD VNW VPW VSS
.ends

* Black-box entry subcircuit for gf180mcu_fd_sc_mcu7t5v0__filltie abstract view
.subckt gf180mcu_fd_sc_mcu7t5v0__filltie VDD VSS
.ends

* Black-box entry subcircuit for gf180mcu_fd_sc_mcu7t5v0__fillcap_8 abstract view
.subckt gf180mcu_fd_sc_mcu7t5v0__fillcap_8 VDD VNW VPW VSS
.ends

* Black-box entry subcircuit for gf180mcu_fd_sc_mcu7t5v0__fill_1 abstract view
.subckt gf180mcu_fd_sc_mcu7t5v0__fill_1 VDD VNW VPW VSS
.ends

* Black-box entry subcircuit for gf180mcu_fd_sc_mcu7t5v0__antenna abstract view
.subckt gf180mcu_fd_sc_mcu7t5v0__antenna I VDD VNW VPW VSS
.ends

* Black-box entry subcircuit for gf180mcu_fd_sc_mcu7t5v0__clkbuf_2 abstract view
.subckt gf180mcu_fd_sc_mcu7t5v0__clkbuf_2 I Z VDD VNW VPW VSS
.ends

* Black-box entry subcircuit for gf180mcu_fd_sc_mcu7t5v0__fillcap_4 abstract view
.subckt gf180mcu_fd_sc_mcu7t5v0__fillcap_4 VDD VNW VPW VSS
.ends

* Black-box entry subcircuit for gf180mcu_fd_sc_mcu7t5v0__aoi21_1 abstract view
.subckt gf180mcu_fd_sc_mcu7t5v0__aoi21_1 A1 A2 B ZN VDD VNW VPW VSS
.ends

* Black-box entry subcircuit for gf180mcu_fd_sc_mcu7t5v0__buf_1 abstract view
.subckt gf180mcu_fd_sc_mcu7t5v0__buf_1 I Z VDD VNW VPW VSS
.ends

* Black-box entry subcircuit for gf180mcu_fd_sc_mcu7t5v0__clkinv_2 abstract view
.subckt gf180mcu_fd_sc_mcu7t5v0__clkinv_2 I ZN VDD VNW VPW VSS
.ends

* Black-box entry subcircuit for gf180mcu_fd_sc_mcu7t5v0__xor2_1 abstract view
.subckt gf180mcu_fd_sc_mcu7t5v0__xor2_1 A1 A2 Z VDD VNW VPW VSS
.ends

* Black-box entry subcircuit for gf180mcu_fd_sc_mcu7t5v0__clkinv_1 abstract view
.subckt gf180mcu_fd_sc_mcu7t5v0__clkinv_1 I ZN VDD VNW VPW VSS
.ends

* Black-box entry subcircuit for gf180mcu_fd_sc_mcu7t5v0__nor2_1 abstract view
.subckt gf180mcu_fd_sc_mcu7t5v0__nor2_1 A1 A2 ZN VDD VNW VPW VSS
.ends

* Black-box entry subcircuit for gf180mcu_fd_sc_mcu7t5v0__fill_2 abstract view
.subckt gf180mcu_fd_sc_mcu7t5v0__fill_2 VDD VNW VPW VSS
.ends

* Black-box entry subcircuit for gf180mcu_fd_sc_mcu7t5v0__or2_1 abstract view
.subckt gf180mcu_fd_sc_mcu7t5v0__or2_1 A1 A2 Z VDD VNW VPW VSS
.ends

* Black-box entry subcircuit for gf180mcu_fd_sc_mcu7t5v0__and2_1 abstract view
.subckt gf180mcu_fd_sc_mcu7t5v0__and2_1 A1 A2 Z VDD VNW VPW VSS
.ends

* Black-box entry subcircuit for gf180mcu_fd_sc_mcu7t5v0__fillcap_16 abstract view
.subckt gf180mcu_fd_sc_mcu7t5v0__fillcap_16 VDD VNW VPW VSS
.ends

* Black-box entry subcircuit for gf180mcu_fd_sc_mcu7t5v0__and3_1 abstract view
.subckt gf180mcu_fd_sc_mcu7t5v0__and3_1 A1 A2 A3 Z VDD VNW VPW VSS
.ends

* Black-box entry subcircuit for gf180mcu_fd_sc_mcu7t5v0__clkbuf_16 abstract view
.subckt gf180mcu_fd_sc_mcu7t5v0__clkbuf_16 I Z VDD VNW VPW VSS
.ends

* Black-box entry subcircuit for gf180mcu_fd_sc_mcu7t5v0__aoi211_2 abstract view
.subckt gf180mcu_fd_sc_mcu7t5v0__aoi211_2 A1 A2 B C ZN VDD VNW VPW VSS
.ends

* Black-box entry subcircuit for gf180mcu_fd_sc_mcu7t5v0__aoi221_1 abstract view
.subckt gf180mcu_fd_sc_mcu7t5v0__aoi221_1 A1 A2 B1 B2 C ZN VDD VNW VPW VSS
.ends

* Black-box entry subcircuit for gf180mcu_fd_sc_mcu7t5v0__buf_8 abstract view
.subckt gf180mcu_fd_sc_mcu7t5v0__buf_8 I Z VDD VNW VPW VSS
.ends

* Black-box entry subcircuit for gf180mcu_fd_sc_mcu7t5v0__clkbuf_1 abstract view
.subckt gf180mcu_fd_sc_mcu7t5v0__clkbuf_1 I Z VDD VNW VPW VSS
.ends

* Black-box entry subcircuit for gf180mcu_fd_sc_mcu7t5v0__nand2_1 abstract view
.subckt gf180mcu_fd_sc_mcu7t5v0__nand2_1 A1 A2 ZN VDD VNW VPW VSS
.ends

* Black-box entry subcircuit for gf180mcu_fd_sc_mcu7t5v0__aoi22_1 abstract view
.subckt gf180mcu_fd_sc_mcu7t5v0__aoi22_1 A1 A2 B1 B2 ZN VDD VNW VPW VSS
.ends

* Black-box entry subcircuit for gf180mcu_fd_sc_mcu7t5v0__endcap abstract view
.subckt gf180mcu_fd_sc_mcu7t5v0__endcap VDD VSS
.ends

* Black-box entry subcircuit for gf180mcu_fd_sc_mcu7t5v0__oai221_4 abstract view
.subckt gf180mcu_fd_sc_mcu7t5v0__oai221_4 A1 A2 B1 B2 C ZN VDD VNW VPW VSS
.ends

* Black-box entry subcircuit for gf180mcu_fd_sc_mcu7t5v0__oai22_1 abstract view
.subckt gf180mcu_fd_sc_mcu7t5v0__oai22_1 A1 A2 B1 B2 ZN VDD VNW VPW VSS
.ends

* Black-box entry subcircuit for gf180mcu_fd_sc_mcu7t5v0__nor3_1 abstract view
.subckt gf180mcu_fd_sc_mcu7t5v0__nor3_1 A1 A2 A3 ZN VDD VNW VPW VSS
.ends

* Black-box entry subcircuit for gf180mcu_fd_sc_mcu7t5v0__oai22_2 abstract view
.subckt gf180mcu_fd_sc_mcu7t5v0__oai22_2 A1 A2 B1 B2 ZN VDD VNW VPW VSS
.ends

* Black-box entry subcircuit for gf180mcu_fd_sc_mcu7t5v0__oai31_1 abstract view
.subckt gf180mcu_fd_sc_mcu7t5v0__oai31_1 A1 A2 A3 B ZN VDD VNW VPW VSS
.ends

* Black-box entry subcircuit for gf180mcu_fd_sc_mcu7t5v0__nor2_2 abstract view
.subckt gf180mcu_fd_sc_mcu7t5v0__nor2_2 A1 A2 ZN VDD VNW VPW VSS
.ends

* Black-box entry subcircuit for gf180mcu_fd_sc_mcu7t5v0__nor4_1 abstract view
.subckt gf180mcu_fd_sc_mcu7t5v0__nor4_1 A1 A2 A3 A4 ZN VDD VNW VPW VSS
.ends

* Black-box entry subcircuit for gf180mcu_fd_sc_mcu7t5v0__and4_1 abstract view
.subckt gf180mcu_fd_sc_mcu7t5v0__and4_1 A1 A2 A3 A4 Z VDD VNW VPW VSS
.ends

* Black-box entry subcircuit for gf180mcu_fd_sc_mcu7t5v0__oai21_2 abstract view
.subckt gf180mcu_fd_sc_mcu7t5v0__oai21_2 A1 A2 B ZN VDD VNW VPW VSS
.ends

* Black-box entry subcircuit for gf180mcu_fd_sc_mcu7t5v0__oai211_4 abstract view
.subckt gf180mcu_fd_sc_mcu7t5v0__oai211_4 A1 A2 B C ZN VDD VNW VPW VSS
.ends

* Black-box entry subcircuit for gf180mcu_fd_sc_mcu7t5v0__inv_1 abstract view
.subckt gf180mcu_fd_sc_mcu7t5v0__inv_1 I ZN VDD VNW VPW VSS
.ends

* Black-box entry subcircuit for gf180mcu_fd_sc_mcu7t5v0__nor4_4 abstract view
.subckt gf180mcu_fd_sc_mcu7t5v0__nor4_4 A1 A2 A3 A4 ZN VDD VNW VPW VSS
.ends

* Black-box entry subcircuit for gf180mcu_fd_sc_mcu7t5v0__fillcap_32 abstract view
.subckt gf180mcu_fd_sc_mcu7t5v0__fillcap_32 VDD VNW VPW VSS
.ends

* Black-box entry subcircuit for gf180mcu_fd_sc_mcu7t5v0__aoi22_2 abstract view
.subckt gf180mcu_fd_sc_mcu7t5v0__aoi22_2 A1 A2 B1 B2 ZN VDD VNW VPW VSS
.ends

* Black-box entry subcircuit for gf180mcu_fd_sc_mcu7t5v0__nand3_1 abstract view
.subckt gf180mcu_fd_sc_mcu7t5v0__nand3_1 A1 A2 A3 ZN VDD VNW VPW VSS
.ends

* Black-box entry subcircuit for gf180mcu_fd_sc_mcu7t5v0__nor3_2 abstract view
.subckt gf180mcu_fd_sc_mcu7t5v0__nor3_2 A1 A2 A3 ZN VDD VNW VPW VSS
.ends

* Black-box entry subcircuit for gf180mcu_fd_sc_mcu7t5v0__nand4_2 abstract view
.subckt gf180mcu_fd_sc_mcu7t5v0__nand4_2 A1 A2 A3 A4 ZN VDD VNW VPW VSS
.ends

* Black-box entry subcircuit for gf180mcu_fd_sc_mcu7t5v0__buf_2 abstract view
.subckt gf180mcu_fd_sc_mcu7t5v0__buf_2 I Z VDD VNW VPW VSS
.ends

* Black-box entry subcircuit for gf180mcu_fd_sc_mcu7t5v0__fillcap_64 abstract view
.subckt gf180mcu_fd_sc_mcu7t5v0__fillcap_64 VDD VNW VPW VSS
.ends

* Black-box entry subcircuit for gf180mcu_fd_sc_mcu7t5v0__dffq_2 abstract view
.subckt gf180mcu_fd_sc_mcu7t5v0__dffq_2 D CLK Q VDD VNW VPW VSS
.ends

* Black-box entry subcircuit for gf180mcu_fd_sc_mcu7t5v0__aoi221_2 abstract view
.subckt gf180mcu_fd_sc_mcu7t5v0__aoi221_2 A1 A2 B1 B2 C ZN VDD VNW VPW VSS
.ends

* Black-box entry subcircuit for gf180mcu_fd_sc_mcu7t5v0__or3_1 abstract view
.subckt gf180mcu_fd_sc_mcu7t5v0__or3_1 A1 A2 A3 Z VDD VNW VPW VSS
.ends

* Black-box entry subcircuit for gf180mcu_fd_sc_mcu7t5v0__aoi221_4 abstract view
.subckt gf180mcu_fd_sc_mcu7t5v0__aoi221_4 A1 A2 B1 B2 C ZN VDD VNW VPW VSS
.ends

* Black-box entry subcircuit for gf180mcu_fd_sc_mcu7t5v0__nand4_4 abstract view
.subckt gf180mcu_fd_sc_mcu7t5v0__nand4_4 A1 A2 A3 A4 ZN VDD VNW VPW VSS
.ends

* Black-box entry subcircuit for gf180mcu_fd_sc_mcu7t5v0__nand4_1 abstract view
.subckt gf180mcu_fd_sc_mcu7t5v0__nand4_1 A1 A2 A3 A4 ZN VDD VNW VPW VSS
.ends

* Black-box entry subcircuit for gf180mcu_fd_sc_mcu7t5v0__aoi21_2 abstract view
.subckt gf180mcu_fd_sc_mcu7t5v0__aoi21_2 A1 A2 B ZN VDD VNW VPW VSS
.ends

* Black-box entry subcircuit for gf180mcu_fd_sc_mcu7t5v0__tiel abstract view
.subckt gf180mcu_fd_sc_mcu7t5v0__tiel ZN VDD VNW VPW VSS
.ends

* Black-box entry subcircuit for gf180mcu_fd_sc_mcu7t5v0__aoi211_1 abstract view
.subckt gf180mcu_fd_sc_mcu7t5v0__aoi211_1 A1 A2 B C ZN VDD VNW VPW VSS
.ends

* Black-box entry subcircuit for gf180mcu_fd_sc_mcu7t5v0__oai32_2 abstract view
.subckt gf180mcu_fd_sc_mcu7t5v0__oai32_2 A1 A2 A3 B1 B2 ZN VDD VNW VPW VSS
.ends

* Black-box entry subcircuit for gf180mcu_fd_sc_mcu7t5v0__oai211_2 abstract view
.subckt gf180mcu_fd_sc_mcu7t5v0__oai211_2 A1 A2 B C ZN VDD VNW VPW VSS
.ends

* Black-box entry subcircuit for gf180mcu_fd_sc_mcu7t5v0__nor3_4 abstract view
.subckt gf180mcu_fd_sc_mcu7t5v0__nor3_4 A1 A2 A3 ZN VDD VNW VPW VSS
.ends

* Black-box entry subcircuit for gf180mcu_fd_sc_mcu7t5v0__xnor2_1 abstract view
.subckt gf180mcu_fd_sc_mcu7t5v0__xnor2_1 A1 A2 ZN VDD VNW VPW VSS
.ends

* Black-box entry subcircuit for gf180mcu_fd_sc_mcu7t5v0__oai211_1 abstract view
.subckt gf180mcu_fd_sc_mcu7t5v0__oai211_1 A1 A2 B C ZN VDD VNW VPW VSS
.ends

* Black-box entry subcircuit for gf180mcu_fd_sc_mcu7t5v0__nand2_2 abstract view
.subckt gf180mcu_fd_sc_mcu7t5v0__nand2_2 A1 A2 ZN VDD VNW VPW VSS
.ends

* Black-box entry subcircuit for gf180mcu_fd_sc_mcu7t5v0__xnor2_2 abstract view
.subckt gf180mcu_fd_sc_mcu7t5v0__xnor2_2 A1 A2 ZN VDD VNW VPW VSS
.ends

* Black-box entry subcircuit for gf180mcu_fd_sc_mcu7t5v0__xnor3_1 abstract view
.subckt gf180mcu_fd_sc_mcu7t5v0__xnor3_1 A1 A2 A3 ZN VDD VNW VPW VSS
.ends

* Black-box entry subcircuit for gf180mcu_fd_sc_mcu7t5v0__nor4_2 abstract view
.subckt gf180mcu_fd_sc_mcu7t5v0__nor4_2 A1 A2 A3 A4 ZN VDD VNW VPW VSS
.ends

.subckt wrapped_ay8913 custom_settings[0] custom_settings[1] io_in_1[0] io_in_1[1]
+ io_in_1[2] io_in_1[3] io_in_1[4] io_in_1[5] io_in_1[6] io_in_1[7] io_in_2[0] io_in_2[1]
+ io_out[10] io_out[11] io_out[17] io_out[18] io_out[19] io_out[20] io_out[21] io_out[23]
+ io_out[24] io_out[25] io_out[26] io_out[27] io_out[2] io_out[3] io_out[4] io_out[5]
+ io_out[6] io_out[7] io_out[8] io_out[9] rst_n vdd vss wb_clk_i io_out[1] io_out[16]
+ io_out[15] io_out[0] io_out[14] io_out[13] io_out[12] io_out[22]
X_2106_ _0056_ clknet_leaf_22_wb_clk_i tt_um_rejunity_ay8913.tone_B_generator.period\[4\]
+ vdd vdd vss vss gf180mcu_fd_sc_mcu7t5v0__dffq_1
X_2037_ tt_um_rejunity_ay8913.pwm_A.accumulator\[6\] _0597_ _0593_ _0601_ vdd vdd
+ vss vss gf180mcu_fd_sc_mcu7t5v0__oai21_1
XTAP_TAPCELL_ROW_52_404 vdd vss gf180mcu_fd_sc_mcu7t5v0__filltie
XFILLER_0_49_336 vdd vdd vss vss gf180mcu_fd_sc_mcu7t5v0__fillcap_8
XFILLER_0_2_119 vdd vdd vss vss gf180mcu_fd_sc_mcu7t5v0__fill_1
XANTENNA__1684__A1 _0796_ vdd vdd vss vss gf180mcu_fd_sc_mcu7t5v0__antenna
X_1270_ net5 _0798_ vdd vdd vss vss gf180mcu_fd_sc_mcu7t5v0__clkbuf_2
XFILLER_0_54_350 vdd vdd vss vss gf180mcu_fd_sc_mcu7t5v0__fillcap_4
XTAP_TAPCELL_ROW_14_194 vdd vss gf180mcu_fd_sc_mcu7t5v0__filltie
X_1606_ _0254_ _0255_ _0248_ _0131_ vdd vdd vss vss gf180mcu_fd_sc_mcu7t5v0__aoi21_1
X_1537_ _1003_ _1004_ vdd vdd vss vss gf180mcu_fd_sc_mcu7t5v0__buf_1
X_1468_ tt_um_rejunity_ay8913.envelope_generator.period\[8\] _0943_ vdd vdd vss vss
+ gf180mcu_fd_sc_mcu7t5v0__clkinv_2
X_1399_ _0840_ _0872_ _0883_ _0097_ vdd vdd vss vss gf180mcu_fd_sc_mcu7t5v0__aoi21_1
XTAP_TAPCELL_ROW_28_275 vdd vss gf180mcu_fd_sc_mcu7t5v0__filltie
XFILLER_0_28_339 vdd vdd vss vss gf180mcu_fd_sc_mcu7t5v0__fill_1
XFILLER_0_51_320 vdd vdd vss vss gf180mcu_fd_sc_mcu7t5v0__fillcap_4
X_1322_ tt_um_rejunity_ay8913.pwm_B.accumulator\[8\] _0832_ _0833_ vdd vdd vss vss
+ gf180mcu_fd_sc_mcu7t5v0__xor2_1
X_1253_ _0786_ _0048_ vdd vdd vss vss gf180mcu_fd_sc_mcu7t5v0__clkinv_1
XANTENNA__1409__A1 _0884_ vdd vdd vss vss gf180mcu_fd_sc_mcu7t5v0__antenna
X_1184_ _0734_ _0739_ _0026_ vdd vdd vss vss gf180mcu_fd_sc_mcu7t5v0__nor2_1
XFILLER_0_46_103 vdd vdd vss vss gf180mcu_fd_sc_mcu7t5v0__fill_2
XFILLER_0_4_93 vdd vdd vss vss gf180mcu_fd_sc_mcu7t5v0__fill_1
XTAP_TAPCELL_ROW_2_132 vdd vss gf180mcu_fd_sc_mcu7t5v0__filltie
XFILLER_0_37_136 vdd vdd vss vss gf180mcu_fd_sc_mcu7t5v0__fill_2
XTAP_TAPCELL_ROW_25_256 vdd vss gf180mcu_fd_sc_mcu7t5v0__filltie
XFILLER_0_29_39 vdd vdd vss vss gf180mcu_fd_sc_mcu7t5v0__fill_1
XANTENNA__1887__A1 _0857_ vdd vdd vss vss gf180mcu_fd_sc_mcu7t5v0__antenna
XFILLER_0_0_18 vdd vdd vss vss gf180mcu_fd_sc_mcu7t5v0__fill_2
X_1940_ tt_um_rejunity_ay8913.tone_A_generator.counter\[5\] _0536_ _0538_ vdd vdd
+ vss vss gf180mcu_fd_sc_mcu7t5v0__nor2_1
X_1871_ _0473_ _0480_ _0172_ vdd vdd vss vss gf180mcu_fd_sc_mcu7t5v0__nor2_1
XFILLER_0_28_103 vdd vdd vss vss gf180mcu_fd_sc_mcu7t5v0__fill_2
X_1305_ _0819_ _0820_ _0066_ vdd vdd vss vss gf180mcu_fd_sc_mcu7t5v0__nor2_1
X_1236_ _0767_ _0774_ vdd vdd vss vss gf180mcu_fd_sc_mcu7t5v0__buf_1
XFILLER_0_19_72 vdd vdd vss vss gf180mcu_fd_sc_mcu7t5v0__fillcap_8
X_1098_ _0670_ _0671_ vdd vdd vss vss gf180mcu_fd_sc_mcu7t5v0__clkbuf_2
XFILLER_0_35_82 vdd vdd vss vss gf180mcu_fd_sc_mcu7t5v0__fill_1
X_1167_ tt_um_rejunity_ay8913.spi_dac_i_2.spi_dat_buff\[3\] _0726_ vdd vdd vss vss
+ gf180mcu_fd_sc_mcu7t5v0__clkinv_1
XFILLER_0_19_125 vdd vdd vss vss gf180mcu_fd_sc_mcu7t5v0__fill_2
XTAP_TAPCELL_ROW_30_281 vdd vss gf180mcu_fd_sc_mcu7t5v0__filltie
XTAP_TAPCELL_ROW_22_237 vdd vss gf180mcu_fd_sc_mcu7t5v0__filltie
XFILLER_0_30_389 vdd vdd vss vss gf180mcu_fd_sc_mcu7t5v0__fill_1
XFILLER_0_21_301 vdd vdd vss vss gf180mcu_fd_sc_mcu7t5v0__fill_2
X_2070_ _0020_ clknet_leaf_37_wb_clk_i tt_um_rejunity_ay8913.pwm_master.accumulator\[9\]
+ vdd vdd vss vss gf180mcu_fd_sc_mcu7t5v0__dffq_1
XTAP_TAPCELL_ROW_44_362 vdd vss gf180mcu_fd_sc_mcu7t5v0__filltie
XTAP_TAPCELL_ROW_36_318 vdd vss gf180mcu_fd_sc_mcu7t5v0__filltie
XFILLER_0_29_401 vdd vdd vss vss gf180mcu_fd_sc_mcu7t5v0__fill_1
XFILLER_0_8_317 vdd vdd vss vss gf180mcu_fd_sc_mcu7t5v0__fill_2
X_1923_ _0492_ _0525_ _0526_ vdd vdd vss vss gf180mcu_fd_sc_mcu7t5v0__or2_1
X_1854_ _0408_ _0307_ _0425_ _0469_ vdd vdd vss vss gf180mcu_fd_sc_mcu7t5v0__aoi21_1
X_1785_ _0371_ _0403_ _0404_ vdd vdd vss vss gf180mcu_fd_sc_mcu7t5v0__and2_1
XFILLER_0_16_128 vdd vdd vss vss gf180mcu_fd_sc_mcu7t5v0__fillcap_16
XFILLER_0_12_389 vdd vdd vss vss gf180mcu_fd_sc_mcu7t5v0__fill_1
XFILLER_0_46_92 vdd vdd vss vss gf180mcu_fd_sc_mcu7t5v0__fillcap_4
X_2199_ _0149_ clknet_leaf_7_wb_clk_i tt_um_rejunity_ay8913.envelope_generator.hold
+ vdd vdd vss vss gf180mcu_fd_sc_mcu7t5v0__dffq_1
X_1219_ _0719_ tt_um_rejunity_ay8913.pwm_C.accumulator\[8\] _0760_ _0762_ vdd vdd
+ vss vss gf180mcu_fd_sc_mcu7t5v0__and3_1
X_2268_ _0218_ clknet_leaf_39_wb_clk_i tt_um_rejunity_ay8913.pwm_A.accumulator\[6\]
+ vdd vdd vss vss gf180mcu_fd_sc_mcu7t5v0__dffq_1
XFILLER_0_47_286 vdd vdd vss vss gf180mcu_fd_sc_mcu7t5v0__fill_1
XFILLER_0_39_209 vdd vdd vss vss gf180mcu_fd_sc_mcu7t5v0__fill_1
XFILLER_0_1_72 vdd vdd vss vss gf180mcu_fd_sc_mcu7t5v0__fillcap_4
XFILLER_0_50_418 vdd vdd vss vss gf180mcu_fd_sc_mcu7t5v0__fill_2
XFILLER_0_15_150 vdd vdd vss vss gf180mcu_fd_sc_mcu7t5v0__fill_2
XFILLER_0_15_194 vdd vdd vss vss gf180mcu_fd_sc_mcu7t5v0__fill_1
XANTENNA_clkbuf_leaf_10_wb_clk_i_I clknet_2_1__leaf_wb_clk_i vdd vdd vss vss gf180mcu_fd_sc_mcu7t5v0__antenna
XFILLER_0_26_18 vdd vdd vss vss gf180mcu_fd_sc_mcu7t5v0__fillcap_4
XFILLER_0_26_29 vdd vdd vss vss gf180mcu_fd_sc_mcu7t5v0__fillcap_4
XTAP_TAPCELL_ROW_41_343 vdd vss gf180mcu_fd_sc_mcu7t5v0__filltie
XFILLER_0_38_264 vdd vdd vss vss gf180mcu_fd_sc_mcu7t5v0__fill_2
Xclkbuf_leaf_14_wb_clk_i clknet_2_1__leaf_wb_clk_i clknet_leaf_14_wb_clk_i vdd vdd
+ vss vss gf180mcu_fd_sc_mcu7t5v0__clkbuf_16
XFILLER_0_13_109 vdd vdd vss vss gf180mcu_fd_sc_mcu7t5v0__fill_1
X_1570_ _0895_ tt_um_rejunity_ay8913.envelope_attack _0893_ tt_um_rejunity_ay8913.envelope_generator.signal_edge.previous_signal_state_0
+ _0227_ vdd vdd vss vss gf180mcu_fd_sc_mcu7t5v0__aoi211_2
X_2122_ _0072_ clknet_leaf_37_wb_clk_i net22 vdd vdd vss vss gf180mcu_fd_sc_mcu7t5v0__dffq_1
X_2053_ _0003_ clknet_leaf_31_wb_clk_i tt_um_rejunity_ay8913.noise_generator.period\[3\]
+ vdd vdd vss vss gf180mcu_fd_sc_mcu7t5v0__dffq_1
XFILLER_0_32_83 vdd vdd vss vss gf180mcu_fd_sc_mcu7t5v0__fill_1
XFILLER_0_8_147 vdd vdd vss vss gf180mcu_fd_sc_mcu7t5v0__fill_2
XFILLER_0_8_169 vdd vdd vss vss gf180mcu_fd_sc_mcu7t5v0__fillcap_4
X_1906_ tt_um_rejunity_ay8913.tone_A_generator.period\[5\] _0509_ vdd vdd vss vss
+ gf180mcu_fd_sc_mcu7t5v0__clkinv_1
XFILLER_0_44_278 vdd vdd vss vss gf180mcu_fd_sc_mcu7t5v0__fill_2
X_1768_ _0732_ _0391_ vdd vdd vss vss gf180mcu_fd_sc_mcu7t5v0__clkbuf_2
X_1837_ _0451_ _0452_ _0453_ vdd vdd vss vss gf180mcu_fd_sc_mcu7t5v0__nor2_1
X_1699_ tt_um_rejunity_ay8913.tone_C_generator.counter\[10\] _0325_ _0326_ tt_um_rejunity_ay8913.tone_C_generator.counter\[9\]
+ _0327_ _0328_ vdd vdd vss vss gf180mcu_fd_sc_mcu7t5v0__aoi221_1
XFILLER_0_35_278 vdd vdd vss vss gf180mcu_fd_sc_mcu7t5v0__fill_2
XFILLER_0_35_212 vdd vdd vss vss gf180mcu_fd_sc_mcu7t5v0__fill_2
Xoutput20 net20 io_out[21] vdd vdd vss vss gf180mcu_fd_sc_mcu7t5v0__buf_8
X_1622_ _0244_ _0267_ vdd vdd vss vss gf180mcu_fd_sc_mcu7t5v0__clkbuf_1
XFILLER_0_26_256 vdd vdd vss vss gf180mcu_fd_sc_mcu7t5v0__fill_1
XFILLER_0_5_139 vdd vdd vss vss gf180mcu_fd_sc_mcu7t5v0__fill_1
X_1553_ _0942_ _1011_ _1016_ vdd vdd vss vss gf180mcu_fd_sc_mcu7t5v0__nand2_1
X_1484_ _0958_ _0945_ _0941_ _0959_ vdd vdd vss vss gf180mcu_fd_sc_mcu7t5v0__aoi21_1
XTAP_TAPCELL_ROW_52_405 vdd vss gf180mcu_fd_sc_mcu7t5v0__filltie
X_2105_ _0055_ clknet_leaf_22_wb_clk_i tt_um_rejunity_ay8913.tone_B_generator.period\[3\]
+ vdd vdd vss vss gf180mcu_fd_sc_mcu7t5v0__dffq_1
XFILLER_0_27_72 vdd vdd vss vss gf180mcu_fd_sc_mcu7t5v0__fill_2
XFILLER_0_27_50 vdd vdd vss vss gf180mcu_fd_sc_mcu7t5v0__fillcap_8
X_2036_ _0599_ _0600_ vdd vdd vss vss gf180mcu_fd_sc_mcu7t5v0__clkbuf_1
XFILLER_0_17_212 vdd vdd vss vss gf180mcu_fd_sc_mcu7t5v0__fill_2
XFILLER_0_4_183 vdd vdd vss vss gf180mcu_fd_sc_mcu7t5v0__fill_2
XFILLER_0_3_18 vdd vdd vss vss gf180mcu_fd_sc_mcu7t5v0__fillcap_4
XTAP_TAPCELL_ROW_8_160 vdd vss gf180mcu_fd_sc_mcu7t5v0__filltie
XTAP_TAPCELL_ROW_14_195 vdd vss gf180mcu_fd_sc_mcu7t5v0__filltie
X_1536_ tt_um_rejunity_ay8913.envelope_generator.tone.counter\[6\] _1002_ _1003_ vdd
+ vdd vss vss gf180mcu_fd_sc_mcu7t5v0__and2_1
X_1605_ tt_um_rejunity_ay8913.noise_generator.lfsr\[6\] _0250_ _0255_ vdd vdd vss
+ vss gf180mcu_fd_sc_mcu7t5v0__nand2_1
XFILLER_0_22_292 vdd vdd vss vss gf180mcu_fd_sc_mcu7t5v0__fillcap_8
X_1467_ tt_um_rejunity_ay8913.envelope_generator.tone.counter\[9\] _0942_ vdd vdd
+ vss vss gf180mcu_fd_sc_mcu7t5v0__clkbuf_2
X_1398_ _0671_ tt_um_rejunity_ay8913.envelope_generator.period\[12\] _0873_ _0883_
+ vdd vdd vss vss gf180mcu_fd_sc_mcu7t5v0__aoi21_1
XANTENNA__1372__A1 _0796_ vdd vdd vss vss gf180mcu_fd_sc_mcu7t5v0__antenna
XFILLER_0_54_70 vdd vdd vss vss gf180mcu_fd_sc_mcu7t5v0__fillcap_8
X_2019_ _0588_ _0212_ vdd vdd vss vss gf180mcu_fd_sc_mcu7t5v0__clkinv_1
XFILLER_0_9_220 vdd vdd vss vss gf180mcu_fd_sc_mcu7t5v0__fillcap_16
XFILLER_0_20_207 vdd vdd vss vss gf180mcu_fd_sc_mcu7t5v0__fill_2
XANTENNA__1115__A1 _0681_ vdd vdd vss vss gf180mcu_fd_sc_mcu7t5v0__antenna
XANTENNA__1666__A2 _0986_ vdd vdd vss vss gf180mcu_fd_sc_mcu7t5v0__antenna
XANTENNA__1106__A1 _0677_ vdd vdd vss vss gf180mcu_fd_sc_mcu7t5v0__antenna
X_1321_ tt_um_rejunity_ay8913.pwm_B.accumulator\[7\] _0826_ _0832_ vdd vdd vss vss
+ gf180mcu_fd_sc_mcu7t5v0__nand2_1
X_1252_ _0630_ _0784_ _0785_ tt_um_rejunity_ay8913.tone_B_generator.period\[8\] _0786_
+ vdd vdd vss vss gf180mcu_fd_sc_mcu7t5v0__aoi22_1
XFILLER_0_24_51 vdd vdd vss vss gf180mcu_fd_sc_mcu7t5v0__fill_2
X_1183_ tt_um_rejunity_ay8913.spi_dac_i_2.spi_dat_buff\[6\] _0727_ _0736_ tt_um_rejunity_ay8913.spi_dac_i_2.spi_dat_buff\[5\]
+ _0739_ vdd vdd vss vss gf180mcu_fd_sc_mcu7t5v0__aoi22_1
XTAP_TAPCELL_ROW_19_221 vdd vss gf180mcu_fd_sc_mcu7t5v0__filltie
XANTENNA__1345__A1 _0800_ vdd vdd vss vss gf180mcu_fd_sc_mcu7t5v0__antenna
XPHY_EDGE_ROW_12_Right_12 vdd vss gf180mcu_fd_sc_mcu7t5v0__endcap
X_1519_ _0990_ _0991_ vdd vdd vss vss gf180mcu_fd_sc_mcu7t5v0__clkbuf_2
XPHY_EDGE_ROW_21_Right_21 vdd vss gf180mcu_fd_sc_mcu7t5v0__endcap
XANTENNA__1103__I _0674_ vdd vdd vss vss gf180mcu_fd_sc_mcu7t5v0__antenna
XTAP_TAPCELL_ROW_25_257 vdd vss gf180mcu_fd_sc_mcu7t5v0__filltie
XPHY_EDGE_ROW_30_Right_30 vdd vss gf180mcu_fd_sc_mcu7t5v0__endcap
XFILLER_0_18_373 vdd vdd vss vss gf180mcu_fd_sc_mcu7t5v0__fill_1
XFILLER_0_18_384 vdd vdd vss vss gf180mcu_fd_sc_mcu7t5v0__fill_1
Xclkbuf_leaf_39_wb_clk_i clknet_2_0__leaf_wb_clk_i clknet_leaf_39_wb_clk_i vdd vdd
+ vss vss gf180mcu_fd_sc_mcu7t5v0__clkbuf_16
X_1870_ _0415_ _0479_ _0480_ vdd vdd vss vss gf180mcu_fd_sc_mcu7t5v0__xor2_1
XFILLER_0_24_387 vdd vdd vss vss gf180mcu_fd_sc_mcu7t5v0__fillcap_4
X_1166_ _0715_ _0725_ _0022_ vdd vdd vss vss gf180mcu_fd_sc_mcu7t5v0__nor2_1
X_1304_ tt_um_rejunity_ay8913.pwm_B.accumulator\[3\] _0817_ _0753_ _0820_ vdd vdd
+ vss vss gf180mcu_fd_sc_mcu7t5v0__oai21_1
X_1235_ _0764_ _0773_ vdd vdd vss vss gf180mcu_fd_sc_mcu7t5v0__buf_1
X_1097_ net13 _0670_ vdd vdd vss vss gf180mcu_fd_sc_mcu7t5v0__clkbuf_2
XFILLER_0_35_72 vdd vdd vss vss gf180mcu_fd_sc_mcu7t5v0__fillcap_8
XFILLER_0_34_107 vdd vdd vss vss gf180mcu_fd_sc_mcu7t5v0__fill_2
XFILLER_0_19_137 vdd vdd vss vss gf180mcu_fd_sc_mcu7t5v0__fill_1
XTAP_TAPCELL_ROW_22_238 vdd vss gf180mcu_fd_sc_mcu7t5v0__filltie
XANTENNA__1566__A1 _0989_ vdd vdd vss vss gf180mcu_fd_sc_mcu7t5v0__antenna
X_1999_ _0835_ _0571_ _0575_ _0205_ vdd vdd vss vss gf180mcu_fd_sc_mcu7t5v0__aoi21_1
XFILLER_0_30_335 vdd vdd vss vss gf180mcu_fd_sc_mcu7t5v0__fill_1
XFILLER_0_30_302 vdd vdd vss vss gf180mcu_fd_sc_mcu7t5v0__fill_2
XTAP_TAPCELL_ROW_30_282 vdd vss gf180mcu_fd_sc_mcu7t5v0__filltie
XFILLER_0_15_343 vdd vdd vss vss gf180mcu_fd_sc_mcu7t5v0__fill_2
XANTENNA__1768__I _0732_ vdd vdd vss vss gf180mcu_fd_sc_mcu7t5v0__antenna
X_1922_ _0524_ _0525_ vdd vdd vss vss gf180mcu_fd_sc_mcu7t5v0__clkbuf_1
XTAP_TAPCELL_ROW_44_363 vdd vss gf180mcu_fd_sc_mcu7t5v0__filltie
XTAP_TAPCELL_ROW_36_319 vdd vss gf180mcu_fd_sc_mcu7t5v0__filltie
X_1853_ _0425_ _0408_ _0986_ _0468_ vdd vdd vss vss gf180mcu_fd_sc_mcu7t5v0__and3_1
X_1784_ _0323_ _0401_ _0403_ vdd vdd vss vss gf180mcu_fd_sc_mcu7t5v0__xor2_1
XFILLER_0_12_302 vdd vdd vss vss gf180mcu_fd_sc_mcu7t5v0__fillcap_8
XFILLER_0_16_107 vdd vdd vss vss gf180mcu_fd_sc_mcu7t5v0__fill_1
X_2198_ _0148_ clknet_leaf_8_wb_clk_i tt_um_rejunity_ay8913.envelope_generator.signal_edge.previous_signal_state_0
+ vdd vdd vss vss gf180mcu_fd_sc_mcu7t5v0__dffq_1
X_1218_ tt_um_rejunity_ay8913.pwm_C.accumulator\[8\] _0760_ _0761_ _0038_ vdd vdd
+ vss vss gf180mcu_fd_sc_mcu7t5v0__aoi21_1
X_1149_ _0699_ _0712_ _0713_ vdd vdd vss vss gf180mcu_fd_sc_mcu7t5v0__nand2_1
X_2267_ _0217_ clknet_leaf_39_wb_clk_i tt_um_rejunity_ay8913.pwm_A.accumulator\[5\]
+ vdd vdd vss vss gf180mcu_fd_sc_mcu7t5v0__dffq_1
XFILLER_0_47_298 vdd vdd vss vss gf180mcu_fd_sc_mcu7t5v0__fill_2
XFILLER_0_47_265 vdd vdd vss vss gf180mcu_fd_sc_mcu7t5v0__fill_2
XFILLER_0_47_254 vdd vdd vss vss gf180mcu_fd_sc_mcu7t5v0__fill_2
XANTENNA_clkbuf_leaf_6_wb_clk_i_I clknet_2_1__leaf_wb_clk_i vdd vdd vss vss gf180mcu_fd_sc_mcu7t5v0__antenna
XTAP_TAPCELL_ROW_41_344 vdd vss gf180mcu_fd_sc_mcu7t5v0__filltie
XANTENNA__1778__A1 _0391_ vdd vdd vss vss gf180mcu_fd_sc_mcu7t5v0__antenna
X_2121_ _0071_ clknet_leaf_38_wb_clk_i tt_um_rejunity_ay8913.pwm_B.accumulator\[8\]
+ vdd vdd vss vss gf180mcu_fd_sc_mcu7t5v0__dffq_1
X_2052_ _0002_ clknet_leaf_31_wb_clk_i tt_um_rejunity_ay8913.noise_generator.period\[2\]
+ vdd vdd vss vss gf180mcu_fd_sc_mcu7t5v0__dffq_1
XFILLER_0_16_41 vdd vdd vss vss gf180mcu_fd_sc_mcu7t5v0__fill_1
X_1905_ tt_um_rejunity_ay8913.tone_A_generator.counter\[4\] _0497_ _0504_ _0506_ _0507_
+ _0508_ vdd vdd vss vss gf180mcu_fd_sc_mcu7t5v0__oai221_4
XFILLER_0_29_298 vdd vdd vss vss gf180mcu_fd_sc_mcu7t5v0__fillcap_16
XFILLER_0_8_104 vdd vdd vss vss gf180mcu_fd_sc_mcu7t5v0__fill_1
X_1698_ _0322_ tt_um_rejunity_ay8913.tone_C_generator.period\[11\] _0327_ vdd vdd
+ vss vss gf180mcu_fd_sc_mcu7t5v0__nor2_1
XPHY_EDGE_ROW_6_Right_6 vdd vss gf180mcu_fd_sc_mcu7t5v0__endcap
X_1767_ _0390_ _0158_ vdd vdd vss vss gf180mcu_fd_sc_mcu7t5v0__clkbuf_1
XFILLER_0_12_143 vdd vdd vss vss gf180mcu_fd_sc_mcu7t5v0__fill_1
XFILLER_0_12_187 vdd vdd vss vss gf180mcu_fd_sc_mcu7t5v0__fill_1
X_1836_ _0449_ tt_um_rejunity_ay8913.tone_B_generator.period\[10\] _0452_ vdd vdd
+ vss vss gf180mcu_fd_sc_mcu7t5v0__nor2_1
XANTENNA_input11_I io_in_2[0] vdd vdd vss vss gf180mcu_fd_sc_mcu7t5v0__antenna
XFILLER_0_23_419 vdd vdd vss vss gf180mcu_fd_sc_mcu7t5v0__fill_1
Xoutput21 net21 io_out[8] vdd vdd vss vss gf180mcu_fd_sc_mcu7t5v0__buf_8
XFILLER_0_5_107 vdd vdd vss vss gf180mcu_fd_sc_mcu7t5v0__fill_2
X_1552_ tt_um_rejunity_ay8913.envelope_generator.tone.counter\[10\] _1015_ vdd vdd
+ vss vss gf180mcu_fd_sc_mcu7t5v0__clkinv_1
X_1621_ _0265_ _0266_ _0259_ _0135_ vdd vdd vss vss gf180mcu_fd_sc_mcu7t5v0__aoi21_1
XFILLER_0_14_419 vdd vdd vss vss gf180mcu_fd_sc_mcu7t5v0__fill_1
X_1483_ _0942_ _0875_ _0943_ _0944_ _0958_ vdd vdd vss vss gf180mcu_fd_sc_mcu7t5v0__oai22_1
X_2104_ _0054_ clknet_leaf_22_wb_clk_i tt_um_rejunity_ay8913.tone_B_generator.period\[2\]
+ vdd vdd vss vss gf180mcu_fd_sc_mcu7t5v0__dffq_1
XANTENNA_input3_I io_in_1[0] vdd vdd vss vss gf180mcu_fd_sc_mcu7t5v0__antenna
XTAP_TAPCELL_ROW_52_406 vdd vss gf180mcu_fd_sc_mcu7t5v0__filltie
XFILLER_0_43_72 vdd vdd vss vss gf180mcu_fd_sc_mcu7t5v0__fill_2
X_2035_ tt_um_rejunity_ay8913.pwm_A.accumulator\[6\] _0597_ _0599_ vdd vdd vss vss
+ gf180mcu_fd_sc_mcu7t5v0__and2_1
XFILLER_0_32_238 vdd vdd vss vss gf180mcu_fd_sc_mcu7t5v0__fill_2
XFILLER_0_17_224 vdd vdd vss vss gf180mcu_fd_sc_mcu7t5v0__fillcap_4
XFILLER_0_17_279 vdd vdd vss vss gf180mcu_fd_sc_mcu7t5v0__fill_1
X_1819_ tt_um_rejunity_ay8913.tone_B_generator.counter\[3\] _0435_ vdd vdd vss vss
+ gf180mcu_fd_sc_mcu7t5v0__clkbuf_1
XFILLER_0_7_72 vdd vdd vss vss gf180mcu_fd_sc_mcu7t5v0__fill_2
XFILLER_0_23_249 vdd vdd vss vss gf180mcu_fd_sc_mcu7t5v0__fill_2
XFILLER_0_31_282 vdd vdd vss vss gf180mcu_fd_sc_mcu7t5v0__fill_1
XTAP_TAPCELL_ROW_8_161 vdd vss gf180mcu_fd_sc_mcu7t5v0__filltie
XFILLER_0_13_53 vdd vdd vss vss gf180mcu_fd_sc_mcu7t5v0__fill_2
XTAP_TAPCELL_ROW_14_196 vdd vss gf180mcu_fd_sc_mcu7t5v0__filltie
X_1535_ _0996_ _1001_ _1002_ _0113_ vdd vdd vss vss gf180mcu_fd_sc_mcu7t5v0__nor3_1
X_1604_ tt_um_rejunity_ay8913.noise_generator.lfsr\[7\] _0245_ _0254_ vdd vdd vss
+ vss gf180mcu_fd_sc_mcu7t5v0__nand2_1
XFILLER_0_22_260 vdd vdd vss vss gf180mcu_fd_sc_mcu7t5v0__fill_2
X_1466_ tt_um_rejunity_ay8913.envelope_generator.tone.counter\[11\] _0880_ _0878_
+ tt_um_rejunity_ay8913.envelope_generator.tone.counter\[10\] _0941_ vdd vdd vss vss
+ gf180mcu_fd_sc_mcu7t5v0__oai22_2
X_1397_ _0675_ _0880_ _0881_ _0882_ _0096_ vdd vdd vss vss gf180mcu_fd_sc_mcu7t5v0__oai31_1
XFILLER_0_38_83 vdd vdd vss vss gf180mcu_fd_sc_mcu7t5v0__fill_2
XFILLER_0_49_146 vdd vdd vss vss gf180mcu_fd_sc_mcu7t5v0__fill_1
X_2018_ _0778_ _0584_ _0585_ tt_um_rejunity_ay8913.envelope_generator.period\[6\]
+ _0588_ vdd vdd vss vss gf180mcu_fd_sc_mcu7t5v0__aoi22_1
XPHY_EDGE_ROW_19_Left_74 vdd vss gf180mcu_fd_sc_mcu7t5v0__endcap
XFILLER_0_13_282 vdd vdd vss vss gf180mcu_fd_sc_mcu7t5v0__fill_2
XFILLER_0_28_308 vdd vdd vss vss gf180mcu_fd_sc_mcu7t5v0__fillcap_4
X_1320_ _0659_ _0831_ vdd vdd vss vss gf180mcu_fd_sc_mcu7t5v0__clkbuf_2
XTAP_TAPCELL_ROW_11_177 vdd vss gf180mcu_fd_sc_mcu7t5v0__filltie
X_1251_ _0732_ _0783_ _0785_ vdd vdd vss vss gf180mcu_fd_sc_mcu7t5v0__nor2_2
X_1182_ _0734_ _0738_ _0025_ vdd vdd vss vss gf180mcu_fd_sc_mcu7t5v0__nor2_1
XTAP_TAPCELL_ROW_19_222 vdd vss gf180mcu_fd_sc_mcu7t5v0__filltie
Xclkbuf_leaf_9_wb_clk_i clknet_2_1__leaf_wb_clk_i clknet_leaf_9_wb_clk_i vdd vdd vss
+ vss gf180mcu_fd_sc_mcu7t5v0__clkbuf_16
XFILLER_0_42_366 vdd vdd vss vss gf180mcu_fd_sc_mcu7t5v0__fill_2
XFILLER_0_42_333 vdd vdd vss vss gf180mcu_fd_sc_mcu7t5v0__fillcap_8
XFILLER_0_42_300 vdd vdd vss vss gf180mcu_fd_sc_mcu7t5v0__fillcap_8
XFILLER_0_27_352 vdd vdd vss vss gf180mcu_fd_sc_mcu7t5v0__fillcap_8
X_1449_ tt_um_rejunity_ay8913.envelope_generator.period\[2\] _0924_ vdd vdd vss vss
+ gf180mcu_fd_sc_mcu7t5v0__clkinv_1
X_1518_ _0980_ _0990_ vdd vdd vss vss gf180mcu_fd_sc_mcu7t5v0__buf_1
XFILLER_0_52_119 vdd vdd vss vss gf180mcu_fd_sc_mcu7t5v0__fill_1
XTAP_TAPCELL_ROW_25_258 vdd vss gf180mcu_fd_sc_mcu7t5v0__filltie
XPHY_EDGE_ROW_4_Left_59 vdd vss gf180mcu_fd_sc_mcu7t5v0__endcap
XFILLER_0_33_388 vdd vdd vss vss gf180mcu_fd_sc_mcu7t5v0__fill_2
XFILLER_0_33_366 vdd vdd vss vss gf180mcu_fd_sc_mcu7t5v0__fill_1
XFILLER_0_28_138 vdd vdd vss vss gf180mcu_fd_sc_mcu7t5v0__fillcap_4
XFILLER_0_10_10 vdd vdd vss vss gf180mcu_fd_sc_mcu7t5v0__fillcap_4
X_1303_ tt_um_rejunity_ay8913.pwm_B.accumulator\[3\] _0817_ _0819_ vdd vdd vss vss
+ gf180mcu_fd_sc_mcu7t5v0__and2_1
XFILLER_0_19_63 vdd vdd vss vss gf180mcu_fd_sc_mcu7t5v0__fill_2
X_1096_ _0668_ _0669_ vdd vdd vss vss gf180mcu_fd_sc_mcu7t5v0__buf_1
X_1165_ net19 _0722_ _0724_ tt_um_rejunity_ay8913.spi_dac_i_2.spi_dat_buff\[2\] _0725_
+ vdd vdd vss vss gf180mcu_fd_sc_mcu7t5v0__aoi22_1
X_1234_ _0772_ _0043_ vdd vdd vss vss gf180mcu_fd_sc_mcu7t5v0__clkinv_1
XANTENNA__1263__A1 _0766_ vdd vdd vss vss gf180mcu_fd_sc_mcu7t5v0__antenna
XFILLER_0_27_171 vdd vdd vss vss gf180mcu_fd_sc_mcu7t5v0__fill_1
XTAP_TAPCELL_ROW_22_239 vdd vss gf180mcu_fd_sc_mcu7t5v0__filltie
X_1998_ _0686_ _0567_ _0856_ _0575_ vdd vdd vss vss gf180mcu_fd_sc_mcu7t5v0__oai21_1
XFILLER_0_30_314 vdd vdd vss vss gf180mcu_fd_sc_mcu7t5v0__fill_1
XTAP_TAPCELL_ROW_30_283 vdd vss gf180mcu_fd_sc_mcu7t5v0__filltie
XFILLER_0_21_369 vdd vdd vss vss gf180mcu_fd_sc_mcu7t5v0__fill_1
X_1921_ _0670_ _0523_ _0524_ vdd vdd vss vss gf180mcu_fd_sc_mcu7t5v0__nand2_1
X_1852_ _0464_ _0467_ vdd vdd vss vss gf180mcu_fd_sc_mcu7t5v0__buf_1
XFILLER_0_24_130 vdd vdd vss vss gf180mcu_fd_sc_mcu7t5v0__fill_2
X_1783_ _0402_ _0162_ vdd vdd vss vss gf180mcu_fd_sc_mcu7t5v0__clkbuf_1