* NGSPICE file created from wrapped_ay8913.ext - technology: gf180mcuD

* Black-box entry subcircuit for gf180mcu_fd_sc_mcu7t5v0__clkinv_1 abstract view
.subckt gf180mcu_fd_sc_mcu7t5v0__clkinv_1 I ZN VDD VNW VPW VSS
.ends

* Black-box entry subcircuit for gf180mcu_fd_sc_mcu7t5v0__oai21_1 abstract view
.subckt gf180mcu_fd_sc_mcu7t5v0__oai21_1 A1 A2 B ZN VDD VNW VPW VSS
.ends

* Black-box entry subcircuit for gf180mcu_fd_sc_mcu7t5v0__fillcap_8 abstract view
.subckt gf180mcu_fd_sc_mcu7t5v0__fillcap_8 VDD VNW VPW VSS
.ends

* Black-box entry subcircuit for gf180mcu_fd_sc_mcu7t5v0__filltie abstract view
.subckt gf180mcu_fd_sc_mcu7t5v0__filltie VDD VSS
.ends

* Black-box entry subcircuit for gf180mcu_fd_sc_mcu7t5v0__fill_1 abstract view
.subckt gf180mcu_fd_sc_mcu7t5v0__fill_1 VDD VNW VPW VSS
.ends

* Black-box entry subcircuit for gf180mcu_fd_sc_mcu7t5v0__antenna abstract view
.subckt gf180mcu_fd_sc_mcu7t5v0__antenna I VDD VNW VPW VSS
.ends

* Black-box entry subcircuit for gf180mcu_fd_sc_mcu7t5v0__and4_1 abstract view
.subckt gf180mcu_fd_sc_mcu7t5v0__and4_1 A1 A2 A3 A4 Z VDD VNW VPW VSS
.ends

* Black-box entry subcircuit for gf180mcu_fd_sc_mcu7t5v0__and2_1 abstract view
.subckt gf180mcu_fd_sc_mcu7t5v0__and2_1 A1 A2 Z VDD VNW VPW VSS
.ends

* Black-box entry subcircuit for gf180mcu_fd_sc_mcu7t5v0__dffq_2 abstract view
.subckt gf180mcu_fd_sc_mcu7t5v0__dffq_2 D CLK Q VDD VNW VPW VSS
.ends

* Black-box entry subcircuit for gf180mcu_fd_sc_mcu7t5v0__nand3_1 abstract view
.subckt gf180mcu_fd_sc_mcu7t5v0__nand3_1 A1 A2 A3 ZN VDD VNW VPW VSS
.ends

* Black-box entry subcircuit for gf180mcu_fd_sc_mcu7t5v0__aoi22_1 abstract view
.subckt gf180mcu_fd_sc_mcu7t5v0__aoi22_1 A1 A2 B1 B2 ZN VDD VNW VPW VSS
.ends

* Black-box entry subcircuit for gf180mcu_fd_sc_mcu7t5v0__fill_2 abstract view
.subckt gf180mcu_fd_sc_mcu7t5v0__fill_2 VDD VNW VPW VSS
.ends

* Black-box entry subcircuit for gf180mcu_fd_sc_mcu7t5v0__fillcap_4 abstract view
.subckt gf180mcu_fd_sc_mcu7t5v0__fillcap_4 VDD VNW VPW VSS
.ends

* Black-box entry subcircuit for gf180mcu_fd_sc_mcu7t5v0__dffq_1 abstract view
.subckt gf180mcu_fd_sc_mcu7t5v0__dffq_1 D CLK Q VDD VNW VPW VSS
.ends

* Black-box entry subcircuit for gf180mcu_fd_sc_mcu7t5v0__nor2_1 abstract view
.subckt gf180mcu_fd_sc_mcu7t5v0__nor2_1 A1 A2 ZN VDD VNW VPW VSS
.ends

* Black-box entry subcircuit for gf180mcu_fd_sc_mcu7t5v0__nand2_1 abstract view
.subckt gf180mcu_fd_sc_mcu7t5v0__nand2_1 A1 A2 ZN VDD VNW VPW VSS
.ends

* Black-box entry subcircuit for gf180mcu_fd_sc_mcu7t5v0__aoi21_1 abstract view
.subckt gf180mcu_fd_sc_mcu7t5v0__aoi21_1 A1 A2 B ZN VDD VNW VPW VSS
.ends

* Black-box entry subcircuit for gf180mcu_fd_sc_mcu7t5v0__clkbuf_1 abstract view
.subckt gf180mcu_fd_sc_mcu7t5v0__clkbuf_1 I Z VDD VNW VPW VSS
.ends

* Black-box entry subcircuit for gf180mcu_fd_sc_mcu7t5v0__fillcap_16 abstract view
.subckt gf180mcu_fd_sc_mcu7t5v0__fillcap_16 VDD VNW VPW VSS
.ends

* Black-box entry subcircuit for gf180mcu_fd_sc_mcu7t5v0__endcap abstract view
.subckt gf180mcu_fd_sc_mcu7t5v0__endcap VDD VSS
.ends

* Black-box entry subcircuit for gf180mcu_fd_sc_mcu7t5v0__nor3_1 abstract view
.subckt gf180mcu_fd_sc_mcu7t5v0__nor3_1 A1 A2 A3 ZN VDD VNW VPW VSS
.ends

* Black-box entry subcircuit for gf180mcu_fd_sc_mcu7t5v0__nor2_2 abstract view
.subckt gf180mcu_fd_sc_mcu7t5v0__nor2_2 A1 A2 ZN VDD VNW VPW VSS
.ends

* Black-box entry subcircuit for gf180mcu_fd_sc_mcu7t5v0__oai211_1 abstract view
.subckt gf180mcu_fd_sc_mcu7t5v0__oai211_1 A1 A2 B C ZN VDD VNW VPW VSS
.ends

* Black-box entry subcircuit for gf180mcu_fd_sc_mcu7t5v0__clkbuf_16 abstract view
.subckt gf180mcu_fd_sc_mcu7t5v0__clkbuf_16 I Z VDD VNW VPW VSS
.ends

* Black-box entry subcircuit for gf180mcu_fd_sc_mcu7t5v0__buf_1 abstract view
.subckt gf180mcu_fd_sc_mcu7t5v0__buf_1 I Z VDD VNW VPW VSS
.ends

* Black-box entry subcircuit for gf180mcu_fd_sc_mcu7t5v0__buf_8 abstract view
.subckt gf180mcu_fd_sc_mcu7t5v0__buf_8 I Z VDD VNW VPW VSS
.ends

* Black-box entry subcircuit for gf180mcu_fd_sc_mcu7t5v0__or2_1 abstract view
.subckt gf180mcu_fd_sc_mcu7t5v0__or2_1 A1 A2 Z VDD VNW VPW VSS
.ends

* Black-box entry subcircuit for gf180mcu_fd_sc_mcu7t5v0__clkbuf_2 abstract view
.subckt gf180mcu_fd_sc_mcu7t5v0__clkbuf_2 I Z VDD VNW VPW VSS
.ends

* Black-box entry subcircuit for gf180mcu_fd_sc_mcu7t5v0__xnor2_1 abstract view
.subckt gf180mcu_fd_sc_mcu7t5v0__xnor2_1 A1 A2 ZN VDD VNW VPW VSS
.ends

* Black-box entry subcircuit for gf180mcu_fd_sc_mcu7t5v0__oai22_1 abstract view
.subckt gf180mcu_fd_sc_mcu7t5v0__oai22_1 A1 A2 B1 B2 ZN VDD VNW VPW VSS
.ends

* Black-box entry subcircuit for gf180mcu_fd_sc_mcu7t5v0__and3_1 abstract view
.subckt gf180mcu_fd_sc_mcu7t5v0__and3_1 A1 A2 A3 Z VDD VNW VPW VSS
.ends

* Black-box entry subcircuit for gf180mcu_fd_sc_mcu7t5v0__xor2_1 abstract view
.subckt gf180mcu_fd_sc_mcu7t5v0__xor2_1 A1 A2 Z VDD VNW VPW VSS
.ends

* Black-box entry subcircuit for gf180mcu_fd_sc_mcu7t5v0__fillcap_32 abstract view
.subckt gf180mcu_fd_sc_mcu7t5v0__fillcap_32 VDD VNW VPW VSS
.ends

* Black-box entry subcircuit for gf180mcu_fd_sc_mcu7t5v0__aoi21_2 abstract view
.subckt gf180mcu_fd_sc_mcu7t5v0__aoi21_2 A1 A2 B ZN VDD VNW VPW VSS
.ends

* Black-box entry subcircuit for gf180mcu_fd_sc_mcu7t5v0__nor4_1 abstract view
.subckt gf180mcu_fd_sc_mcu7t5v0__nor4_1 A1 A2 A3 A4 ZN VDD VNW VPW VSS
.ends

* Black-box entry subcircuit for gf180mcu_fd_sc_mcu7t5v0__or3_1 abstract view
.subckt gf180mcu_fd_sc_mcu7t5v0__or3_1 A1 A2 A3 Z VDD VNW VPW VSS
.ends

* Black-box entry subcircuit for gf180mcu_fd_sc_mcu7t5v0__nand4_4 abstract view
.subckt gf180mcu_fd_sc_mcu7t5v0__nand4_4 A1 A2 A3 A4 ZN VDD VNW VPW VSS
.ends

* Black-box entry subcircuit for gf180mcu_fd_sc_mcu7t5v0__clkinv_2 abstract view
.subckt gf180mcu_fd_sc_mcu7t5v0__clkinv_2 I ZN VDD VNW VPW VSS
.ends

* Black-box entry subcircuit for gf180mcu_fd_sc_mcu7t5v0__nor4_2 abstract view
.subckt gf180mcu_fd_sc_mcu7t5v0__nor4_2 A1 A2 A3 A4 ZN VDD VNW VPW VSS
.ends

* Black-box entry subcircuit for gf180mcu_fd_sc_mcu7t5v0__xor3_1 abstract view
.subckt gf180mcu_fd_sc_mcu7t5v0__xor3_1 A1 A2 A3 Z VDD VNW VPW VSS
.ends

* Black-box entry subcircuit for gf180mcu_fd_sc_mcu7t5v0__nand3_2 abstract view
.subckt gf180mcu_fd_sc_mcu7t5v0__nand3_2 A1 A2 A3 ZN VDD VNW VPW VSS
.ends

* Black-box entry subcircuit for gf180mcu_fd_sc_mcu7t5v0__inv_1 abstract view
.subckt gf180mcu_fd_sc_mcu7t5v0__inv_1 I ZN VDD VNW VPW VSS
.ends

* Black-box entry subcircuit for gf180mcu_fd_sc_mcu7t5v0__nor3_2 abstract view
.subckt gf180mcu_fd_sc_mcu7t5v0__nor3_2 A1 A2 A3 ZN VDD VNW VPW VSS
.ends

* Black-box entry subcircuit for gf180mcu_fd_sc_mcu7t5v0__nor4_4 abstract view
.subckt gf180mcu_fd_sc_mcu7t5v0__nor4_4 A1 A2 A3 A4 ZN VDD VNW VPW VSS
.ends

* Black-box entry subcircuit for gf180mcu_fd_sc_mcu7t5v0__aoi221_4 abstract view
.subckt gf180mcu_fd_sc_mcu7t5v0__aoi221_4 A1 A2 B1 B2 C ZN VDD VNW VPW VSS
.ends

* Black-box entry subcircuit for gf180mcu_fd_sc_mcu7t5v0__oai22_2 abstract view
.subckt gf180mcu_fd_sc_mcu7t5v0__oai22_2 A1 A2 B1 B2 ZN VDD VNW VPW VSS
.ends

* Black-box entry subcircuit for gf180mcu_fd_sc_mcu7t5v0__clkbuf_3 abstract view
.subckt gf180mcu_fd_sc_mcu7t5v0__clkbuf_3 I Z VDD VNW VPW VSS
.ends

* Black-box entry subcircuit for gf180mcu_fd_sc_mcu7t5v0__oai32_4 abstract view
.subckt gf180mcu_fd_sc_mcu7t5v0__oai32_4 A1 A2 A3 B1 B2 ZN VDD VNW VPW VSS
.ends

* Black-box entry subcircuit for gf180mcu_fd_sc_mcu7t5v0__aoi211_1 abstract view
.subckt gf180mcu_fd_sc_mcu7t5v0__aoi211_1 A1 A2 B C ZN VDD VNW VPW VSS
.ends

* Black-box entry subcircuit for gf180mcu_fd_sc_mcu7t5v0__aoi221_2 abstract view
.subckt gf180mcu_fd_sc_mcu7t5v0__aoi221_2 A1 A2 B1 B2 C ZN VDD VNW VPW VSS
.ends

* Black-box entry subcircuit for gf180mcu_fd_sc_mcu7t5v0__nand2_2 abstract view
.subckt gf180mcu_fd_sc_mcu7t5v0__nand2_2 A1 A2 ZN VDD VNW VPW VSS
.ends

* Black-box entry subcircuit for gf180mcu_fd_sc_mcu7t5v0__aoi221_1 abstract view
.subckt gf180mcu_fd_sc_mcu7t5v0__aoi221_1 A1 A2 B1 B2 C ZN VDD VNW VPW VSS
.ends

* Black-box entry subcircuit for gf180mcu_fd_sc_mcu7t5v0__oai21_2 abstract view
.subckt gf180mcu_fd_sc_mcu7t5v0__oai21_2 A1 A2 B ZN VDD VNW VPW VSS
.ends

* Black-box entry subcircuit for gf180mcu_fd_sc_mcu7t5v0__oai32_1 abstract view
.subckt gf180mcu_fd_sc_mcu7t5v0__oai32_1 A1 A2 A3 B1 B2 ZN VDD VNW VPW VSS
.ends

* Black-box entry subcircuit for gf180mcu_fd_sc_mcu7t5v0__fillcap_64 abstract view
.subckt gf180mcu_fd_sc_mcu7t5v0__fillcap_64 VDD VNW VPW VSS
.ends

* Black-box entry subcircuit for gf180mcu_fd_sc_mcu7t5v0__oai31_1 abstract view
.subckt gf180mcu_fd_sc_mcu7t5v0__oai31_1 A1 A2 A3 B ZN VDD VNW VPW VSS
.ends

* Black-box entry subcircuit for gf180mcu_fd_sc_mcu7t5v0__oai211_4 abstract view
.subckt gf180mcu_fd_sc_mcu7t5v0__oai211_4 A1 A2 B C ZN VDD VNW VPW VSS
.ends

* Black-box entry subcircuit for gf180mcu_fd_sc_mcu7t5v0__nand4_1 abstract view
.subckt gf180mcu_fd_sc_mcu7t5v0__nand4_1 A1 A2 A3 A4 ZN VDD VNW VPW VSS
.ends

* Black-box entry subcircuit for gf180mcu_fd_sc_mcu7t5v0__oai211_2 abstract view
.subckt gf180mcu_fd_sc_mcu7t5v0__oai211_2 A1 A2 B C ZN VDD VNW VPW VSS
.ends

* Black-box entry subcircuit for gf180mcu_fd_sc_mcu7t5v0__aoi22_2 abstract view
.subckt gf180mcu_fd_sc_mcu7t5v0__aoi22_2 A1 A2 B1 B2 ZN VDD VNW VPW VSS
.ends

* Black-box entry subcircuit for gf180mcu_fd_sc_mcu7t5v0__aoi222_2 abstract view
.subckt gf180mcu_fd_sc_mcu7t5v0__aoi222_2 A1 A2 B1 B2 C1 C2 ZN VDD VNW VPW VSS
.ends

* Black-box entry subcircuit for gf180mcu_fd_sc_mcu7t5v0__tiel abstract view
.subckt gf180mcu_fd_sc_mcu7t5v0__tiel ZN VDD VNW VPW VSS
.ends

* Black-box entry subcircuit for gf180mcu_fd_sc_mcu7t5v0__buf_2 abstract view
.subckt gf180mcu_fd_sc_mcu7t5v0__buf_2 I Z VDD VNW VPW VSS
.ends

* Black-box entry subcircuit for gf180mcu_fd_sc_mcu7t5v0__xnor2_2 abstract view
.subckt gf180mcu_fd_sc_mcu7t5v0__xnor2_2 A1 A2 ZN VDD VNW VPW VSS
.ends

* Black-box entry subcircuit for gf180mcu_fd_sc_mcu7t5v0__or4_1 abstract view
.subckt gf180mcu_fd_sc_mcu7t5v0__or4_1 A1 A2 A3 A4 Z VDD VNW VPW VSS
.ends

* Black-box entry subcircuit for gf180mcu_fd_sc_mcu7t5v0__aoi22_4 abstract view
.subckt gf180mcu_fd_sc_mcu7t5v0__aoi22_4 A1 A2 B1 B2 ZN VDD VNW VPW VSS
.ends

* Black-box entry subcircuit for gf180mcu_fd_sc_mcu7t5v0__oai32_2 abstract view
.subckt gf180mcu_fd_sc_mcu7t5v0__oai32_2 A1 A2 A3 B1 B2 ZN VDD VNW VPW VSS
.ends

* Black-box entry subcircuit for gf180mcu_fd_sc_mcu7t5v0__aoi222_4 abstract view
.subckt gf180mcu_fd_sc_mcu7t5v0__aoi222_4 A1 A2 B1 B2 C1 C2 ZN VDD VNW VPW VSS
.ends

* Black-box entry subcircuit for gf180mcu_fd_sc_mcu7t5v0__aoi211_2 abstract view
.subckt gf180mcu_fd_sc_mcu7t5v0__aoi211_2 A1 A2 B C ZN VDD VNW VPW VSS
.ends

* Black-box entry subcircuit for gf180mcu_fd_sc_mcu7t5v0__inv_2 abstract view
.subckt gf180mcu_fd_sc_mcu7t5v0__inv_2 I ZN VDD VNW VPW VSS
.ends

* Black-box entry subcircuit for gf180mcu_fd_sc_mcu7t5v0__nor3_4 abstract view
.subckt gf180mcu_fd_sc_mcu7t5v0__nor3_4 A1 A2 A3 ZN VDD VNW VPW VSS
.ends

.subckt wrapped_ay8913 custom_settings[0] custom_settings[1] custom_settings[2] custom_settings[3]
+ io_in_1[0] io_in_1[1] io_in_1[2] io_in_1[3] io_in_1[4] io_in_1[5] io_in_1[6] io_in_1[7]
+ io_in_2[0] io_in_2[1] io_out[10] io_out[11] io_out[17] io_out[18] io_out[19] io_out[1]
+ io_out[20] io_out[21] io_out[23] io_out[24] io_out[25] io_out[26] io_out[27] io_out[2]
+ io_out[3] io_out[4] io_out[5] io_out[7] io_out[8] io_out[9] rst_n vdd vss wb_clk_i
+ io_out[16] io_out[15] io_out[0] io_out[14] io_out[13] io_out[12] io_out[22] io_out[6]
X_2106_ tt_um_rejunity_ay8913.tone_B_generator.counter\[3\] _0626_ vdd vdd vss vss
+ gf180mcu_fd_sc_mcu7t5v0__clkinv_1
X_2037_ _0529_ _0569_ _0526_ _0570_ vdd vdd vss vss gf180mcu_fd_sc_mcu7t5v0__oai21_1
XFILLER_0_27_82 vdd vdd vss vss gf180mcu_fd_sc_mcu7t5v0__fillcap_8
XTAP_TAPCELL_ROW_52_437 vdd vss gf180mcu_fd_sc_mcu7t5v0__filltie
XFILLER_0_17_266 vdd vdd vss vss gf180mcu_fd_sc_mcu7t5v0__fill_1
XANTENNA__1445__A1 _1037_ vdd vdd vss vss gf180mcu_fd_sc_mcu7t5v0__antenna
XANTENNA__1693__A1 tt_um_rejunity_ay8913.noise_generator.signal_edge.signal vdd vdd
+ vss vss gf180mcu_fd_sc_mcu7t5v0__antenna
XFILLER_0_48_37 vdd vdd vss vss gf180mcu_fd_sc_mcu7t5v0__fill_1
XTAP_TAPCELL_ROW_8_170 vdd vss gf180mcu_fd_sc_mcu7t5v0__filltie
X_1270_ blink.counter\[7\] _0897_ _0904_ _0911_ _0912_ vdd vdd vss vss gf180mcu_fd_sc_mcu7t5v0__and4_1
XANTENNA__1389__I net6 vdd vdd vss vss gf180mcu_fd_sc_mcu7t5v0__antenna
X_1606_ tt_um_rejunity_ay8913.pwm_A.accumulator\[2\] _0868_ _1156_ vdd vdd vss vss
+ gf180mcu_fd_sc_mcu7t5v0__and2_1
XFILLER_0_14_247 vdd vdd vss vss gf180mcu_fd_sc_mcu7t5v0__fill_1
X_2586_ _0200_ clknet_leaf_16_wb_clk_i tt_um_rejunity_ay8913.tone_B_generator.counter\[2\]
+ vdd vdd vss vss gf180mcu_fd_sc_mcu7t5v0__dffq_2
X_1537_ _1003_ tt_um_rejunity_ay8913.tone_B_generator.period\[8\] _1111_ _1112_ vdd
+ vdd vss vss gf180mcu_fd_sc_mcu7t5v0__nand3_1
X_1468_ tt_um_rejunity_ay8913.spi_dac_i_2.spi_dat_buff\[7\] _1062_ _1063_ tt_um_rejunity_ay8913.spi_dac_i_2.spi_dat_buff\[6\]
+ _1064_ vdd vdd vss vss gf180mcu_fd_sc_mcu7t5v0__aoi22_1
X_1399_ tt_um_rejunity_ay8913.pwm_master.accumulator\[2\] net20 _1008_ _1009_ vdd
+ vdd vss vss gf180mcu_fd_sc_mcu7t5v0__oai21_1
XANTENNA__1675__A1 _0270_ vdd vdd vss vss gf180mcu_fd_sc_mcu7t5v0__antenna
XFILLER_0_45_394 vdd vdd vss vss gf180mcu_fd_sc_mcu7t5v0__fill_1
XFILLER_0_45_361 vdd vdd vss vss gf180mcu_fd_sc_mcu7t5v0__fill_2
XANTENNA__1666__A1 _0260_ vdd vdd vss vss gf180mcu_fd_sc_mcu7t5v0__antenna
XTAP_TAPCELL_ROW_5_151 vdd vss gf180mcu_fd_sc_mcu7t5v0__filltie
XFILLER_0_55_136 vdd vdd vss vss gf180mcu_fd_sc_mcu7t5v0__fillcap_4
XANTENNA__1969__A2 _0508_ vdd vdd vss vss gf180mcu_fd_sc_mcu7t5v0__antenna
XFILLER_0_3_428 vdd vdd vss vss gf180mcu_fd_sc_mcu7t5v0__fill_1
XFILLER_0_3_417 vdd vdd vss vss gf180mcu_fd_sc_mcu7t5v0__fill_2
X_2440_ _0054_ clknet_leaf_27_wb_clk_i tt_um_rejunity_ay8913.spi_dac_i_2.spi_dat_buff\[6\]
+ vdd vdd vss vss gf180mcu_fd_sc_mcu7t5v0__dffq_1
XTAP_TAPCELL_ROW_11_186 vdd vss gf180mcu_fd_sc_mcu7t5v0__filltie
X_1253_ _0890_ _0899_ _0004_ vdd vdd vss vss gf180mcu_fd_sc_mcu7t5v0__nor2_1
X_1322_ _0946_ _0945_ _0947_ _0948_ vdd vdd vss vss gf180mcu_fd_sc_mcu7t5v0__oai21_1
X_2371_ _0991_ _1173_ _0838_ vdd vdd vss vss gf180mcu_fd_sc_mcu7t5v0__nand2_1
XANTENNA__1657__A1 _1102_ vdd vdd vss vss gf180mcu_fd_sc_mcu7t5v0__antenna
XANTENNA__1409__A1 _1012_ vdd vdd vss vss gf180mcu_fd_sc_mcu7t5v0__antenna
X_2569_ _0183_ clknet_leaf_21_wb_clk_i tt_um_rejunity_ay8913.noise_generator.tone.counter\[4\]
+ vdd vdd vss vss gf180mcu_fd_sc_mcu7t5v0__dffq_1
XFILLER_0_6_288 vdd vdd vss vss gf180mcu_fd_sc_mcu7t5v0__fill_1
X_2638_ _0252_ clknet_leaf_32_wb_clk_i tt_um_rejunity_ay8913.envelope_B vdd vdd vss
+ vss gf180mcu_fd_sc_mcu7t5v0__dffq_1
XTAP_TAPCELL_ROW_2_132 vdd vss gf180mcu_fd_sc_mcu7t5v0__filltie
XFILLER_0_37_147 vdd vdd vss vss gf180mcu_fd_sc_mcu7t5v0__fill_1
XFILLER_0_33_364 vdd vdd vss vss gf180mcu_fd_sc_mcu7t5v0__fill_1
XANTENNA__1351__A3 net12 vdd vdd vss vss gf180mcu_fd_sc_mcu7t5v0__antenna
XFILLER_0_56_412 vdd vdd vss vss gf180mcu_fd_sc_mcu7t5v0__fill_1
X_1871_ _0347_ _0429_ _0431_ vdd vdd vss vss gf180mcu_fd_sc_mcu7t5v0__and2_1
XFILLER_0_43_139 vdd vdd vss vss gf180mcu_fd_sc_mcu7t5v0__fill_1
X_1940_ _0482_ _0483_ _0478_ _0174_ vdd vdd vss vss gf180mcu_fd_sc_mcu7t5v0__aoi21_1
X_2423_ _0037_ clknet_leaf_1_wb_clk_i tt_um_rejunity_ay8913.tone_C_generator.period\[8\]
+ vdd vdd vss vss gf180mcu_fd_sc_mcu7t5v0__dffq_1
XTAP_TAPCELL_ROW_39_359 vdd vss gf180mcu_fd_sc_mcu7t5v0__filltie
X_1236_ _0875_ _0886_ _0887_ vdd vdd vss vss gf180mcu_fd_sc_mcu7t5v0__and2_1
X_1305_ blink.counter\[20\] _0932_ _0936_ vdd vdd vss vss gf180mcu_fd_sc_mcu7t5v0__and2_1
X_2354_ _0828_ _0243_ vdd vdd vss vss gf180mcu_fd_sc_mcu7t5v0__clkinv_1
X_2285_ _0782_ _0220_ vdd vdd vss vss gf180mcu_fd_sc_mcu7t5v0__clkbuf_1
XFILLER_0_51_92 vdd vdd vss vss gf180mcu_fd_sc_mcu7t5v0__fillcap_16
XANTENNA__1869__A1 _0386_ vdd vdd vss vss gf180mcu_fd_sc_mcu7t5v0__antenna
X_2070_ _0594_ _0595_ _0596_ vdd vdd vss vss gf180mcu_fd_sc_mcu7t5v0__nor2_1
XFILLER_0_56_220 vdd vdd vss vss gf180mcu_fd_sc_mcu7t5v0__fill_1
XPHY_EDGE_ROW_28_Left_85 vdd vss gf180mcu_fd_sc_mcu7t5v0__endcap
X_1785_ tt_um_rejunity_ay8913.envelope_generator.tone.counter\[11\] _0357_ _0360_
+ vdd vdd vss vss gf180mcu_fd_sc_mcu7t5v0__nor2_1
X_1854_ _0409_ _0418_ _0419_ _0152_ vdd vdd vss vss gf180mcu_fd_sc_mcu7t5v0__nor3_1
XTAP_TAPCELL_ROW_44_384 vdd vss gf180mcu_fd_sc_mcu7t5v0__filltie
XPHY_EDGE_ROW_12_Left_69 vdd vss gf180mcu_fd_sc_mcu7t5v0__endcap
X_1923_ tt_um_rejunity_ay8913.noise_generator.lfsr\[10\] _0464_ _0471_ vdd vdd vss
+ vss gf180mcu_fd_sc_mcu7t5v0__nand2_1
X_2406_ _0020_ clknet_leaf_42_wb_clk_i blink.counter\[20\] vdd vdd vss vss gf180mcu_fd_sc_mcu7t5v0__dffq_1
X_2268_ _0766_ _0769_ _0770_ vdd vdd vss vss gf180mcu_fd_sc_mcu7t5v0__and2_1
X_1219_ _0870_ _0868_ _0871_ vdd vdd vss vss gf180mcu_fd_sc_mcu7t5v0__nor2_2
X_2337_ _0816_ tt_um_rejunity_ay8913.tone_A_generator.period\[8\] _0817_ _0818_ vdd
+ vdd vss vss gf180mcu_fd_sc_mcu7t5v0__nand3_1
X_2199_ _0701_ tt_um_rejunity_ay8913.tone_A_generator.period\[8\] _0703_ _0705_ _0706_
+ vdd vdd vss vss gf180mcu_fd_sc_mcu7t5v0__oai211_1
XANTENNA_clkbuf_leaf_10_wb_clk_i_I clknet_2_1__leaf_wb_clk_i vdd vdd vss vss gf180mcu_fd_sc_mcu7t5v0__antenna
Xclkbuf_leaf_14_wb_clk_i clknet_2_3__leaf_wb_clk_i clknet_leaf_14_wb_clk_i vdd vdd
+ vss vss gf180mcu_fd_sc_mcu7t5v0__clkbuf_16
XFILLER_0_38_264 vdd vdd vss vss gf180mcu_fd_sc_mcu7t5v0__fill_2
X_1570_ _1132_ _1133_ vdd vdd vss vss gf180mcu_fd_sc_mcu7t5v0__buf_1
XFILLER_0_21_142 vdd vdd vss vss gf180mcu_fd_sc_mcu7t5v0__fill_1
XFILLER_0_21_186 vdd vdd vss vss gf180mcu_fd_sc_mcu7t5v0__fill_2
X_2122_ tt_um_rejunity_ay8913.tone_B_generator.period\[6\] _0642_ vdd vdd vss vss
+ gf180mcu_fd_sc_mcu7t5v0__clkinv_1
X_2053_ _0574_ _0582_ _0583_ vdd vdd vss vss gf180mcu_fd_sc_mcu7t5v0__and2_1
XFILLER_0_29_253 vdd vdd vss vss gf180mcu_fd_sc_mcu7t5v0__fill_2
XFILLER_0_8_114 vdd vdd vss vss gf180mcu_fd_sc_mcu7t5v0__fillcap_4
X_1768_ tt_um_rejunity_ay8913.envelope_generator.period\[10\] _0343_ vdd vdd vss vss
+ gf180mcu_fd_sc_mcu7t5v0__clkinv_1
X_1837_ tt_um_rejunity_ay8913.envelope_generator.tone.counter\[4\] _0401_ _0402_ _0407_
+ vdd vdd vss vss gf180mcu_fd_sc_mcu7t5v0__nand3_1
X_1906_ tt_um_rejunity_ay8913.noise_generator.lfsr\[4\] _0458_ _0459_ vdd vdd vss
+ vss gf180mcu_fd_sc_mcu7t5v0__nand2_1
XFILLER_0_12_186 vdd vdd vss vss gf180mcu_fd_sc_mcu7t5v0__fill_2
X_1699_ _0260_ _0283_ _0285_ tt_um_rejunity_ay8913.tone_disable_A _0286_ vdd vdd vss
+ vss gf180mcu_fd_sc_mcu7t5v0__aoi22_1
XFILLER_0_35_212 vdd vdd vss vss gf180mcu_fd_sc_mcu7t5v0__fill_2
Xoutput20 net20 io_out[20] vdd vdd vss vss gf180mcu_fd_sc_mcu7t5v0__buf_8
X_1622_ _1166_ _1167_ _0105_ vdd vdd vss vss gf180mcu_fd_sc_mcu7t5v0__nor2_1
X_1553_ _1122_ _0081_ vdd vdd vss vss gf180mcu_fd_sc_mcu7t5v0__clkinv_1
X_1484_ _1072_ _1073_ _0061_ vdd vdd vss vss gf180mcu_fd_sc_mcu7t5v0__nor2_1
X_2105_ _0617_ _0624_ _0625_ vdd vdd vss vss gf180mcu_fd_sc_mcu7t5v0__or2_1
X_2036_ _0533_ _0569_ vdd vdd vss vss gf180mcu_fd_sc_mcu7t5v0__clkinv_1
XFILLER_0_27_72 vdd vdd vss vss gf180mcu_fd_sc_mcu7t5v0__fillcap_4
XFILLER_0_27_61 vdd vdd vss vss gf180mcu_fd_sc_mcu7t5v0__fill_2
XFILLER_0_27_50 vdd vdd vss vss gf180mcu_fd_sc_mcu7t5v0__fillcap_4
XANTENNA__1206__A2 _0857_ vdd vdd vss vss gf180mcu_fd_sc_mcu7t5v0__antenna
XFILLER_0_17_212 vdd vdd vss vss gf180mcu_fd_sc_mcu7t5v0__fill_2
XFILLER_0_17_223 vdd vdd vss vss gf180mcu_fd_sc_mcu7t5v0__fill_2
XFILLER_0_4_194 vdd vdd vss vss gf180mcu_fd_sc_mcu7t5v0__fill_1
XFILLER_0_7_82 vdd vdd vss vss gf180mcu_fd_sc_mcu7t5v0__fill_2
XPHY_EDGE_ROW_15_Left_72 vdd vss gf180mcu_fd_sc_mcu7t5v0__endcap
XANTENNA__1693__A2 _1086_ vdd vdd vss vss gf180mcu_fd_sc_mcu7t5v0__antenna
XFILLER_0_23_237 vdd vdd vss vss gf180mcu_fd_sc_mcu7t5v0__fill_2
XFILLER_0_3_18 vdd vdd vss vss gf180mcu_fd_sc_mcu7t5v0__fillcap_4
XTAP_TAPCELL_ROW_8_171 vdd vss gf180mcu_fd_sc_mcu7t5v0__filltie
XFILLER_0_13_96 vdd vdd vss vss gf180mcu_fd_sc_mcu7t5v0__fill_2
X_2585_ _0199_ clknet_leaf_13_wb_clk_i tt_um_rejunity_ay8913.tone_B_generator.counter\[1\]
+ vdd vdd vss vss gf180mcu_fd_sc_mcu7t5v0__dffq_1
XFILLER_0_1_142 vdd vdd vss vss gf180mcu_fd_sc_mcu7t5v0__fill_1
XFILLER_0_1_175 vdd vdd vss vss gf180mcu_fd_sc_mcu7t5v0__fill_1
X_1605_ _1155_ _0100_ vdd vdd vss vss gf180mcu_fd_sc_mcu7t5v0__clkbuf_1
X_1536_ _1109_ _1111_ vdd vdd vss vss gf180mcu_fd_sc_mcu7t5v0__clkbuf_1
XANTENNA__1372__A1 _0986_ vdd vdd vss vss gf180mcu_fd_sc_mcu7t5v0__antenna
X_1398_ _1007_ _1008_ vdd vdd vss vss gf180mcu_fd_sc_mcu7t5v0__clkbuf_2
X_1467_ _1057_ _1063_ vdd vdd vss vss gf180mcu_fd_sc_mcu7t5v0__buf_1
X_2019_ tt_um_rejunity_ay8913.tone_C_generator.period\[6\] _0552_ vdd vdd vss vss
+ gf180mcu_fd_sc_mcu7t5v0__clkinv_1
XFILLER_0_45_373 vdd vdd vss vss gf180mcu_fd_sc_mcu7t5v0__fill_2
XFILLER_0_9_264 vdd vdd vss vss gf180mcu_fd_sc_mcu7t5v0__fill_1
XANTENNA__1363__A1 _0980_ vdd vdd vss vss gf180mcu_fd_sc_mcu7t5v0__antenna
XPHY_EDGE_ROW_0_Left_57 vdd vss gf180mcu_fd_sc_mcu7t5v0__endcap
XTAP_TAPCELL_ROW_5_152 vdd vss gf180mcu_fd_sc_mcu7t5v0__filltie
XANTENNA__2091__A2 _0520_ vdd vdd vss vss gf180mcu_fd_sc_mcu7t5v0__antenna
XTAP_TAPCELL_ROW_11_187 vdd vss gf180mcu_fd_sc_mcu7t5v0__filltie
X_1252_ blink.counter\[4\] _0898_ _0899_ vdd vdd vss vss gf180mcu_fd_sc_mcu7t5v0__xnor2_1
X_1321_ _0946_ _0945_ _0892_ _0947_ vdd vdd vss vss gf180mcu_fd_sc_mcu7t5v0__aoi21_1
X_2370_ _1177_ _0836_ _0837_ _0854_ _0250_ vdd vdd vss vss gf180mcu_fd_sc_mcu7t5v0__oai22_1
XFILLER_0_46_148 vdd vdd vss vss gf180mcu_fd_sc_mcu7t5v0__fillcap_4
X_2499_ _0113_ clknet_leaf_16_wb_clk_i tt_um_rejunity_ay8913.envelope_generator.period\[10\]
+ vdd vdd vss vss gf180mcu_fd_sc_mcu7t5v0__dffq_1
X_1519_ _1091_ _1098_ vdd vdd vss vss gf180mcu_fd_sc_mcu7t5v0__buf_1
XFILLER_0_42_387 vdd vdd vss vss gf180mcu_fd_sc_mcu7t5v0__fill_2
XPHY_EDGE_ROW_42_Left_99 vdd vss gf180mcu_fd_sc_mcu7t5v0__endcap
X_2568_ _0182_ clknet_leaf_25_wb_clk_i tt_um_rejunity_ay8913.noise_generator.tone.counter\[3\]
+ vdd vdd vss vss gf180mcu_fd_sc_mcu7t5v0__dffq_1
XPHY_EDGE_ROW_12_Right_12 vdd vss gf180mcu_fd_sc_mcu7t5v0__endcap
X_2637_ _0251_ clknet_leaf_32_wb_clk_i tt_um_rejunity_ay8913.amplitude_B\[0\] vdd
+ vdd vss vss gf180mcu_fd_sc_mcu7t5v0__dffq_1
XTAP_TAPCELL_ROW_2_133 vdd vss gf180mcu_fd_sc_mcu7t5v0__filltie
XPHY_EDGE_ROW_21_Right_21 vdd vss gf180mcu_fd_sc_mcu7t5v0__endcap
XFILLER_0_52_107 vdd vdd vss vss gf180mcu_fd_sc_mcu7t5v0__fillcap_16
XPHY_EDGE_ROW_30_Right_30 vdd vss gf180mcu_fd_sc_mcu7t5v0__endcap
XFILLER_0_18_373 vdd vdd vss vss gf180mcu_fd_sc_mcu7t5v0__fill_2
XPHY_EDGE_ROW_45_Left_102 vdd vss gf180mcu_fd_sc_mcu7t5v0__endcap
Xclkbuf_leaf_39_wb_clk_i clknet_2_0__leaf_wb_clk_i clknet_leaf_39_wb_clk_i vdd vdd
+ vss vss gf180mcu_fd_sc_mcu7t5v0__clkbuf_16
XANTENNA__1351__A4 net14 vdd vdd vss vss gf180mcu_fd_sc_mcu7t5v0__antenna
XFILLER_0_0_19 vdd vdd vss vss gf180mcu_fd_sc_mcu7t5v0__fillcap_8
X_1870_ _0347_ _0429_ _0430_ vdd vdd vss vss gf180mcu_fd_sc_mcu7t5v0__nor2_1
XPHY_EDGE_ROW_54_Left_111 vdd vss gf180mcu_fd_sc_mcu7t5v0__endcap
XFILLER_0_28_159 vdd vdd vss vss gf180mcu_fd_sc_mcu7t5v0__fill_2
X_2422_ _0036_ clknet_leaf_21_wb_clk_i tt_um_rejunity_ay8913.noise_generator.period\[4\]
+ vdd vdd vss vss gf180mcu_fd_sc_mcu7t5v0__dffq_1
X_2353_ _0268_ _0823_ _0825_ tt_um_rejunity_ay8913.envelope_generator.period\[2\]
+ _0828_ vdd vdd vss vss gf180mcu_fd_sc_mcu7t5v0__aoi22_1
XFILLER_0_24_387 vdd vdd vss vss gf180mcu_fd_sc_mcu7t5v0__fill_1
XFILLER_0_10_31 vdd vdd vss vss gf180mcu_fd_sc_mcu7t5v0__fill_2
X_1235_ _0881_ _0883_ _0884_ _0885_ _0886_ vdd vdd vss vss gf180mcu_fd_sc_mcu7t5v0__oai211_1
X_1304_ blink.counter\[20\] _0932_ _0935_ vdd vdd vss vss gf180mcu_fd_sc_mcu7t5v0__nor2_1
X_2284_ _0754_ _0780_ _0781_ _0782_ vdd vdd vss vss gf180mcu_fd_sc_mcu7t5v0__and3_1
XFILLER_0_34_107 vdd vdd vss vss gf180mcu_fd_sc_mcu7t5v0__fill_2
XANTENNA__1566__A1 _1104_ vdd vdd vss vss gf180mcu_fd_sc_mcu7t5v0__antenna
XFILLER_0_42_140 vdd vdd vss vss gf180mcu_fd_sc_mcu7t5v0__fillcap_4
X_1999_ tt_um_rejunity_ay8913.tone_C_generator.counter\[9\] _0532_ vdd vdd vss vss
+ gf180mcu_fd_sc_mcu7t5v0__clkbuf_1
XPHY_EDGE_ROW_3_Left_60 vdd vss gf180mcu_fd_sc_mcu7t5v0__endcap
XTAP_TAPCELL_ROW_44_385 vdd vss gf180mcu_fd_sc_mcu7t5v0__filltie
X_1922_ _0468_ _0470_ _0467_ _0169_ vdd vdd vss vss gf180mcu_fd_sc_mcu7t5v0__aoi21_1
X_1784_ tt_um_rejunity_ay8913.envelope_generator.tone.counter\[10\] _0343_ _0359_
+ vdd vdd vss vss gf180mcu_fd_sc_mcu7t5v0__nor2_1
XANTENNA__1548__A1 _1054_ vdd vdd vss vss gf180mcu_fd_sc_mcu7t5v0__antenna
X_1853_ tt_um_rejunity_ay8913.envelope_generator.tone.counter\[8\] _0332_ _0413_ _0411_
+ _0419_ vdd vdd vss vss gf180mcu_fd_sc_mcu7t5v0__and4_1
X_2405_ _0019_ clknet_leaf_3_wb_clk_i blink.counter\[19\] vdd vdd vss vss gf180mcu_fd_sc_mcu7t5v0__dffq_1
X_2336_ _0814_ _0817_ vdd vdd vss vss gf180mcu_fd_sc_mcu7t5v0__clkbuf_1
XTAP_TAPCELL_ROW_35_330 vdd vss gf180mcu_fd_sc_mcu7t5v0__filltie
X_2267_ _0767_ _0768_ _0769_ vdd vdd vss vss gf180mcu_fd_sc_mcu7t5v0__nor2_1
X_1218_ _0863_ _0870_ vdd vdd vss vss gf180mcu_fd_sc_mcu7t5v0__clkbuf_2
X_2198_ _0702_ tt_um_rejunity_ay8913.tone_A_generator.period\[11\] tt_um_rejunity_ay8913.tone_A_generator.period\[10\]
+ _0704_ _0705_ vdd vdd vss vss gf180mcu_fd_sc_mcu7t5v0__aoi22_1
XANTENNA_clkbuf_leaf_6_wb_clk_i_I clknet_2_1__leaf_wb_clk_i vdd vdd vss vss gf180mcu_fd_sc_mcu7t5v0__antenna
XFILLER_0_38_243 vdd vdd vss vss gf180mcu_fd_sc_mcu7t5v0__fill_2
XTAP_TAPCELL_ROW_41_366 vdd vss gf180mcu_fd_sc_mcu7t5v0__filltie
XFILLER_0_38_276 vdd vdd vss vss gf180mcu_fd_sc_mcu7t5v0__fillcap_4
XFILLER_0_21_121 vdd vdd vss vss gf180mcu_fd_sc_mcu7t5v0__fill_2
XFILLER_0_6_18 vdd vdd vss vss gf180mcu_fd_sc_mcu7t5v0__fillcap_8
X_2121_ tt_um_rejunity_ay8913.tone_B_generator.period\[7\] _0641_ vdd vdd vss vss
+ gf180mcu_fd_sc_mcu7t5v0__clkinv_1
X_2052_ tt_um_rejunity_ay8913.tone_C_generator.counter\[3\] _0581_ _0582_ vdd vdd
+ vss vss gf180mcu_fd_sc_mcu7t5v0__xor2_1
XFILLER_0_29_276 vdd vdd vss vss gf180mcu_fd_sc_mcu7t5v0__fill_2
X_1905_ _0443_ _0458_ vdd vdd vss vss gf180mcu_fd_sc_mcu7t5v0__buf_1
X_1767_ tt_um_rejunity_ay8913.envelope_generator.tone.counter\[10\] _0342_ vdd vdd
+ vss vss gf180mcu_fd_sc_mcu7t5v0__clkbuf_1
X_1836_ _0315_ _0405_ _0406_ vdd vdd vss vss gf180mcu_fd_sc_mcu7t5v0__nand2_1
XPHY_EDGE_ROW_6_Right_6 vdd vss gf180mcu_fd_sc_mcu7t5v0__endcap
XFILLER_0_4_321 vdd vdd vss vss gf180mcu_fd_sc_mcu7t5v0__fill_1
X_1698_ _0284_ _0285_ vdd vdd vss vss gf180mcu_fd_sc_mcu7t5v0__buf_1
X_2319_ net13 net12 _0806_ vdd vdd vss vss gf180mcu_fd_sc_mcu7t5v0__nand2_1
XANTENNA_input11_I io_in_1[7] vdd vdd vss vss gf180mcu_fd_sc_mcu7t5v0__antenna
XFILLER_0_23_419 vdd vdd vss vss gf180mcu_fd_sc_mcu7t5v0__fill_1
Xoutput21 net21 io_out[21] vdd vdd vss vss gf180mcu_fd_sc_mcu7t5v0__buf_8
XFILLER_0_9_2 vdd vdd vss vss gf180mcu_fd_sc_mcu7t5v0__fillcap_32
X_1552_ _0980_ _1118_ _1120_ tt_um_rejunity_ay8913.tone_B_generator.period\[1\] _1122_
+ vdd vdd vss vss gf180mcu_fd_sc_mcu7t5v0__aoi22_1
XFILLER_0_41_205 vdd vdd vss vss gf180mcu_fd_sc_mcu7t5v0__fill_2
X_1621_ tt_um_rejunity_ay8913.pwm_A.accumulator\[6\] _1163_ _1161_ _1167_ vdd vdd
+ vss vss gf180mcu_fd_sc_mcu7t5v0__oai21_1
XANTENNA_input3_I custom_settings[3] vdd vdd vss vss gf180mcu_fd_sc_mcu7t5v0__antenna
X_2104_ _0619_ _0623_ _0624_ vdd vdd vss vss gf180mcu_fd_sc_mcu7t5v0__nand2_1
X_1483_ tt_um_rejunity_ay8913.pwm_C.accumulator\[3\] _1070_ _1034_ _1073_ vdd vdd
+ vss vss gf180mcu_fd_sc_mcu7t5v0__oai21_1
XFILLER_0_43_72 vdd vdd vss vss gf180mcu_fd_sc_mcu7t5v0__fill_1
X_2035_ _0567_ _0556_ _0535_ _0568_ vdd vdd vss vss gf180mcu_fd_sc_mcu7t5v0__aoi21_2
XFILLER_0_17_202 vdd vdd vss vss gf180mcu_fd_sc_mcu7t5v0__fill_2
X_1819_ _0386_ _0392_ _0393_ vdd vdd vss vss gf180mcu_fd_sc_mcu7t5v0__or2_1
XFILLER_0_7_72 vdd vdd vss vss gf180mcu_fd_sc_mcu7t5v0__fillcap_4
XFILLER_0_7_94 vdd vdd vss vss gf180mcu_fd_sc_mcu7t5v0__fill_2
XFILLER_0_31_260 vdd vdd vss vss gf180mcu_fd_sc_mcu7t5v0__fill_2
XTAP_TAPCELL_ROW_8_172 vdd vss gf180mcu_fd_sc_mcu7t5v0__filltie
XFILLER_0_54_352 vdd vdd vss vss gf180mcu_fd_sc_mcu7t5v0__fill_2
XFILLER_0_39_360 vdd vdd vss vss gf180mcu_fd_sc_mcu7t5v0__fill_1
X_2584_ _0198_ clknet_leaf_13_wb_clk_i tt_um_rejunity_ay8913.tone_B_generator.counter\[0\]
+ vdd vdd vss vss gf180mcu_fd_sc_mcu7t5v0__dffq_1
X_1535_ _1109_ _1110_ vdd vdd vss vss gf180mcu_fd_sc_mcu7t5v0__buf_1
X_1604_ _1021_ tt_um_rejunity_ay8913.pwm_B.accumulator\[7\] tt_um_rejunity_ay8913.pwm_B.accumulator\[8\]
+ _1150_ _1155_ vdd vdd vss vss gf180mcu_fd_sc_mcu7t5v0__and4_1
XFILLER_0_1_110 vdd vdd vss vss gf180mcu_fd_sc_mcu7t5v0__fill_1
XFILLER_0_22_260 vdd vdd vss vss gf180mcu_fd_sc_mcu7t5v0__fill_1
XFILLER_0_38_61 vdd vdd vss vss gf180mcu_fd_sc_mcu7t5v0__fill_2
X_1466_ _1044_ _1062_ vdd vdd vss vss gf180mcu_fd_sc_mcu7t5v0__buf_1
X_1397_ _0994_ _1007_ vdd vdd vss vss gf180mcu_fd_sc_mcu7t5v0__clkbuf_1
X_2018_ tt_um_rejunity_ay8913.tone_C_generator.period\[7\] _0551_ vdd vdd vss vss
+ gf180mcu_fd_sc_mcu7t5v0__clkinv_1
XFILLER_0_49_113 vdd vdd vss vss gf180mcu_fd_sc_mcu7t5v0__fillcap_8
XFILLER_0_20_208 vdd vdd vss vss gf180mcu_fd_sc_mcu7t5v0__fill_2
XTAP_TAPCELL_ROW_5_153 vdd vss gf180mcu_fd_sc_mcu7t5v0__filltie
XFILLER_0_0_6 vdd vdd vss vss gf180mcu_fd_sc_mcu7t5v0__fillcap_8
XTAP_TAPCELL_ROW_28_288 vdd vss gf180mcu_fd_sc_mcu7t5v0__filltie
XFILLER_0_36_352 vdd vdd vss vss gf180mcu_fd_sc_mcu7t5v0__fill_1
X_1320_ blink.counter\[25\] _0946_ vdd vdd vss vss gf180mcu_fd_sc_mcu7t5v0__clkbuf_1
XFILLER_0_3_419 vdd vdd vss vss gf180mcu_fd_sc_mcu7t5v0__fill_1
XTAP_TAPCELL_ROW_11_188 vdd vss gf180mcu_fd_sc_mcu7t5v0__filltie
X_1251_ _0893_ _0896_ _0898_ _0003_ vdd vdd vss vss gf180mcu_fd_sc_mcu7t5v0__nor3_1
XFILLER_0_54_171 vdd vdd vss vss gf180mcu_fd_sc_mcu7t5v0__fillcap_4
Xclkbuf_leaf_9_wb_clk_i clknet_2_1__leaf_wb_clk_i clknet_leaf_9_wb_clk_i vdd vdd vss
+ vss gf180mcu_fd_sc_mcu7t5v0__clkbuf_16
XFILLER_0_42_366 vdd vdd vss vss gf180mcu_fd_sc_mcu7t5v0__fill_2
XFILLER_0_27_352 vdd vdd vss vss gf180mcu_fd_sc_mcu7t5v0__fill_2