* NGSPICE file created from wrapped_sn76489.ext - technology: gf180mcuD

* Black-box entry subcircuit for gf180mcu_fd_sc_mcu7t5v0__aoi21_1 abstract view
.subckt gf180mcu_fd_sc_mcu7t5v0__aoi21_1 A1 A2 B ZN VDD VNW VPW VSS
.ends

* Black-box entry subcircuit for gf180mcu_fd_sc_mcu7t5v0__antenna abstract view
.subckt gf180mcu_fd_sc_mcu7t5v0__antenna I VDD VNW VPW VSS
.ends

* Black-box entry subcircuit for gf180mcu_fd_sc_mcu7t5v0__clkbuf_1 abstract view
.subckt gf180mcu_fd_sc_mcu7t5v0__clkbuf_1 I Z VDD VNW VPW VSS
.ends

* Black-box entry subcircuit for gf180mcu_fd_sc_mcu7t5v0__filltie abstract view
.subckt gf180mcu_fd_sc_mcu7t5v0__filltie VDD VSS
.ends

* Black-box entry subcircuit for gf180mcu_fd_sc_mcu7t5v0__fill_1 abstract view
.subckt gf180mcu_fd_sc_mcu7t5v0__fill_1 VDD VNW VPW VSS
.ends

* Black-box entry subcircuit for gf180mcu_fd_sc_mcu7t5v0__fill_2 abstract view
.subckt gf180mcu_fd_sc_mcu7t5v0__fill_2 VDD VNW VPW VSS
.ends

* Black-box entry subcircuit for gf180mcu_fd_sc_mcu7t5v0__nor3_4 abstract view
.subckt gf180mcu_fd_sc_mcu7t5v0__nor3_4 A1 A2 A3 ZN VDD VNW VPW VSS
.ends

* Black-box entry subcircuit for gf180mcu_fd_sc_mcu7t5v0__dffq_1 abstract view
.subckt gf180mcu_fd_sc_mcu7t5v0__dffq_1 D CLK Q VDD VNW VPW VSS
.ends

* Black-box entry subcircuit for gf180mcu_fd_sc_mcu7t5v0__or2_1 abstract view
.subckt gf180mcu_fd_sc_mcu7t5v0__or2_1 A1 A2 Z VDD VNW VPW VSS
.ends

* Black-box entry subcircuit for gf180mcu_fd_sc_mcu7t5v0__buf_1 abstract view
.subckt gf180mcu_fd_sc_mcu7t5v0__buf_1 I Z VDD VNW VPW VSS
.ends

* Black-box entry subcircuit for gf180mcu_fd_sc_mcu7t5v0__xor2_1 abstract view
.subckt gf180mcu_fd_sc_mcu7t5v0__xor2_1 A1 A2 Z VDD VNW VPW VSS
.ends

* Black-box entry subcircuit for gf180mcu_fd_sc_mcu7t5v0__xnor2_1 abstract view
.subckt gf180mcu_fd_sc_mcu7t5v0__xnor2_1 A1 A2 ZN VDD VNW VPW VSS
.ends

* Black-box entry subcircuit for gf180mcu_fd_sc_mcu7t5v0__oai21_1 abstract view
.subckt gf180mcu_fd_sc_mcu7t5v0__oai21_1 A1 A2 B ZN VDD VNW VPW VSS
.ends

* Black-box entry subcircuit for gf180mcu_fd_sc_mcu7t5v0__clkinv_1 abstract view
.subckt gf180mcu_fd_sc_mcu7t5v0__clkinv_1 I ZN VDD VNW VPW VSS
.ends

* Black-box entry subcircuit for gf180mcu_fd_sc_mcu7t5v0__buf_3 abstract view
.subckt gf180mcu_fd_sc_mcu7t5v0__buf_3 I Z VDD VNW VPW VSS
.ends

* Black-box entry subcircuit for gf180mcu_fd_sc_mcu7t5v0__fillcap_4 abstract view
.subckt gf180mcu_fd_sc_mcu7t5v0__fillcap_4 VDD VNW VPW VSS
.ends

* Black-box entry subcircuit for gf180mcu_fd_sc_mcu7t5v0__nor2_1 abstract view
.subckt gf180mcu_fd_sc_mcu7t5v0__nor2_1 A1 A2 ZN VDD VNW VPW VSS
.ends

* Black-box entry subcircuit for gf180mcu_fd_sc_mcu7t5v0__nand2_1 abstract view
.subckt gf180mcu_fd_sc_mcu7t5v0__nand2_1 A1 A2 ZN VDD VNW VPW VSS
.ends

* Black-box entry subcircuit for gf180mcu_fd_sc_mcu7t5v0__clkbuf_2 abstract view
.subckt gf180mcu_fd_sc_mcu7t5v0__clkbuf_2 I Z VDD VNW VPW VSS
.ends

* Black-box entry subcircuit for gf180mcu_fd_sc_mcu7t5v0__buf_4 abstract view
.subckt gf180mcu_fd_sc_mcu7t5v0__buf_4 I Z VDD VNW VPW VSS
.ends

* Black-box entry subcircuit for gf180mcu_fd_sc_mcu7t5v0__aoi21_2 abstract view
.subckt gf180mcu_fd_sc_mcu7t5v0__aoi21_2 A1 A2 B ZN VDD VNW VPW VSS
.ends

* Black-box entry subcircuit for gf180mcu_fd_sc_mcu7t5v0__and3_1 abstract view
.subckt gf180mcu_fd_sc_mcu7t5v0__and3_1 A1 A2 A3 Z VDD VNW VPW VSS
.ends

* Black-box entry subcircuit for gf180mcu_fd_sc_mcu7t5v0__mux4_1 abstract view
.subckt gf180mcu_fd_sc_mcu7t5v0__mux4_1 I0 I1 I2 I3 S0 S1 Z VDD VNW VPW VSS
.ends

* Black-box entry subcircuit for gf180mcu_fd_sc_mcu7t5v0__buf_8 abstract view
.subckt gf180mcu_fd_sc_mcu7t5v0__buf_8 I Z VDD VNW VPW VSS
.ends

* Black-box entry subcircuit for gf180mcu_fd_sc_mcu7t5v0__fillcap_8 abstract view
.subckt gf180mcu_fd_sc_mcu7t5v0__fillcap_8 VDD VNW VPW VSS
.ends

* Black-box entry subcircuit for gf180mcu_fd_sc_mcu7t5v0__aoi221_4 abstract view
.subckt gf180mcu_fd_sc_mcu7t5v0__aoi221_4 A1 A2 B1 B2 C ZN VDD VNW VPW VSS
.ends

* Black-box entry subcircuit for gf180mcu_fd_sc_mcu7t5v0__aoi222_2 abstract view
.subckt gf180mcu_fd_sc_mcu7t5v0__aoi222_2 A1 A2 B1 B2 C1 C2 ZN VDD VNW VPW VSS
.ends

* Black-box entry subcircuit for gf180mcu_fd_sc_mcu7t5v0__clkbuf_8 abstract view
.subckt gf180mcu_fd_sc_mcu7t5v0__clkbuf_8 I Z VDD VNW VPW VSS
.ends

* Black-box entry subcircuit for gf180mcu_fd_sc_mcu7t5v0__nor2_2 abstract view
.subckt gf180mcu_fd_sc_mcu7t5v0__nor2_2 A1 A2 ZN VDD VNW VPW VSS
.ends

* Black-box entry subcircuit for gf180mcu_fd_sc_mcu7t5v0__dffq_4 abstract view
.subckt gf180mcu_fd_sc_mcu7t5v0__dffq_4 D CLK Q VDD VNW VPW VSS
.ends

* Black-box entry subcircuit for gf180mcu_fd_sc_mcu7t5v0__oai31_2 abstract view
.subckt gf180mcu_fd_sc_mcu7t5v0__oai31_2 A1 A2 A3 B ZN VDD VNW VPW VSS
.ends

* Black-box entry subcircuit for gf180mcu_fd_sc_mcu7t5v0__endcap abstract view
.subckt gf180mcu_fd_sc_mcu7t5v0__endcap VDD VSS
.ends

* Black-box entry subcircuit for gf180mcu_fd_sc_mcu7t5v0__xor3_1 abstract view
.subckt gf180mcu_fd_sc_mcu7t5v0__xor3_1 A1 A2 A3 Z VDD VNW VPW VSS
.ends

* Black-box entry subcircuit for gf180mcu_fd_sc_mcu7t5v0__aoi22_1 abstract view
.subckt gf180mcu_fd_sc_mcu7t5v0__aoi22_1 A1 A2 B1 B2 ZN VDD VNW VPW VSS
.ends

* Black-box entry subcircuit for gf180mcu_fd_sc_mcu7t5v0__oai21_4 abstract view
.subckt gf180mcu_fd_sc_mcu7t5v0__oai21_4 A1 A2 B ZN VDD VNW VPW VSS
.ends

* Black-box entry subcircuit for gf180mcu_fd_sc_mcu7t5v0__xor3_2 abstract view
.subckt gf180mcu_fd_sc_mcu7t5v0__xor3_2 A1 A2 A3 Z VDD VNW VPW VSS
.ends

* Black-box entry subcircuit for gf180mcu_fd_sc_mcu7t5v0__nor4_4 abstract view
.subckt gf180mcu_fd_sc_mcu7t5v0__nor4_4 A1 A2 A3 A4 ZN VDD VNW VPW VSS
.ends

* Black-box entry subcircuit for gf180mcu_fd_sc_mcu7t5v0__buf_2 abstract view
.subckt gf180mcu_fd_sc_mcu7t5v0__buf_2 I Z VDD VNW VPW VSS
.ends

* Black-box entry subcircuit for gf180mcu_fd_sc_mcu7t5v0__nand3_1 abstract view
.subckt gf180mcu_fd_sc_mcu7t5v0__nand3_1 A1 A2 A3 ZN VDD VNW VPW VSS
.ends

* Black-box entry subcircuit for gf180mcu_fd_sc_mcu7t5v0__oai221_1 abstract view
.subckt gf180mcu_fd_sc_mcu7t5v0__oai221_1 A1 A2 B1 B2 C ZN VDD VNW VPW VSS
.ends

* Black-box entry subcircuit for gf180mcu_fd_sc_mcu7t5v0__nor3_2 abstract view
.subckt gf180mcu_fd_sc_mcu7t5v0__nor3_2 A1 A2 A3 ZN VDD VNW VPW VSS
.ends

* Black-box entry subcircuit for gf180mcu_fd_sc_mcu7t5v0__oai21_2 abstract view
.subckt gf180mcu_fd_sc_mcu7t5v0__oai21_2 A1 A2 B ZN VDD VNW VPW VSS
.ends

* Black-box entry subcircuit for gf180mcu_fd_sc_mcu7t5v0__oai211_2 abstract view
.subckt gf180mcu_fd_sc_mcu7t5v0__oai211_2 A1 A2 B C ZN VDD VNW VPW VSS
.ends

* Black-box entry subcircuit for gf180mcu_fd_sc_mcu7t5v0__inv_1 abstract view
.subckt gf180mcu_fd_sc_mcu7t5v0__inv_1 I ZN VDD VNW VPW VSS
.ends

* Black-box entry subcircuit for gf180mcu_fd_sc_mcu7t5v0__or4_1 abstract view
.subckt gf180mcu_fd_sc_mcu7t5v0__or4_1 A1 A2 A3 A4 Z VDD VNW VPW VSS
.ends

* Black-box entry subcircuit for gf180mcu_fd_sc_mcu7t5v0__and2_1 abstract view
.subckt gf180mcu_fd_sc_mcu7t5v0__and2_1 A1 A2 Z VDD VNW VPW VSS
.ends

* Black-box entry subcircuit for gf180mcu_fd_sc_mcu7t5v0__clkinv_4 abstract view
.subckt gf180mcu_fd_sc_mcu7t5v0__clkinv_4 I ZN VDD VNW VPW VSS
.ends

* Black-box entry subcircuit for gf180mcu_fd_sc_mcu7t5v0__oai211_1 abstract view
.subckt gf180mcu_fd_sc_mcu7t5v0__oai211_1 A1 A2 B C ZN VDD VNW VPW VSS
.ends

* Black-box entry subcircuit for gf180mcu_fd_sc_mcu7t5v0__nor3_1 abstract view
.subckt gf180mcu_fd_sc_mcu7t5v0__nor3_1 A1 A2 A3 ZN VDD VNW VPW VSS
.ends

* Black-box entry subcircuit for gf180mcu_fd_sc_mcu7t5v0__xnor3_1 abstract view
.subckt gf180mcu_fd_sc_mcu7t5v0__xnor3_1 A1 A2 A3 ZN VDD VNW VPW VSS
.ends

* Black-box entry subcircuit for gf180mcu_fd_sc_mcu7t5v0__oai22_1 abstract view
.subckt gf180mcu_fd_sc_mcu7t5v0__oai22_1 A1 A2 B1 B2 ZN VDD VNW VPW VSS
.ends

* Black-box entry subcircuit for gf180mcu_fd_sc_mcu7t5v0__clkinv_3 abstract view
.subckt gf180mcu_fd_sc_mcu7t5v0__clkinv_3 I ZN VDD VNW VPW VSS
.ends

* Black-box entry subcircuit for gf180mcu_fd_sc_mcu7t5v0__aoi22_2 abstract view
.subckt gf180mcu_fd_sc_mcu7t5v0__aoi22_2 A1 A2 B1 B2 ZN VDD VNW VPW VSS
.ends

* Black-box entry subcircuit for gf180mcu_fd_sc_mcu7t5v0__nand3_4 abstract view
.subckt gf180mcu_fd_sc_mcu7t5v0__nand3_4 A1 A2 A3 ZN VDD VNW VPW VSS
.ends

* Black-box entry subcircuit for gf180mcu_fd_sc_mcu7t5v0__oai221_4 abstract view
.subckt gf180mcu_fd_sc_mcu7t5v0__oai221_4 A1 A2 B1 B2 C ZN VDD VNW VPW VSS
.ends

* Black-box entry subcircuit for gf180mcu_fd_sc_mcu7t5v0__nand4_4 abstract view
.subckt gf180mcu_fd_sc_mcu7t5v0__nand4_4 A1 A2 A3 A4 ZN VDD VNW VPW VSS
.ends

* Black-box entry subcircuit for gf180mcu_fd_sc_mcu7t5v0__aoi211_2 abstract view
.subckt gf180mcu_fd_sc_mcu7t5v0__aoi211_2 A1 A2 B C ZN VDD VNW VPW VSS
.ends

* Black-box entry subcircuit for gf180mcu_fd_sc_mcu7t5v0__nand3_2 abstract view
.subckt gf180mcu_fd_sc_mcu7t5v0__nand3_2 A1 A2 A3 ZN VDD VNW VPW VSS
.ends

* Black-box entry subcircuit for gf180mcu_fd_sc_mcu7t5v0__nor2_4 abstract view
.subckt gf180mcu_fd_sc_mcu7t5v0__nor2_4 A1 A2 ZN VDD VNW VPW VSS
.ends

* Black-box entry subcircuit for gf180mcu_fd_sc_mcu7t5v0__and4_1 abstract view
.subckt gf180mcu_fd_sc_mcu7t5v0__and4_1 A1 A2 A3 A4 Z VDD VNW VPW VSS
.ends

* Black-box entry subcircuit for gf180mcu_fd_sc_mcu7t5v0__aoi221_1 abstract view
.subckt gf180mcu_fd_sc_mcu7t5v0__aoi221_1 A1 A2 B1 B2 C ZN VDD VNW VPW VSS
.ends

* Black-box entry subcircuit for gf180mcu_fd_sc_mcu7t5v0__clkinv_2 abstract view
.subckt gf180mcu_fd_sc_mcu7t5v0__clkinv_2 I ZN VDD VNW VPW VSS
.ends

* Black-box entry subcircuit for gf180mcu_fd_sc_mcu7t5v0__fillcap_16 abstract view
.subckt gf180mcu_fd_sc_mcu7t5v0__fillcap_16 VDD VNW VPW VSS
.ends

* Black-box entry subcircuit for gf180mcu_fd_sc_mcu7t5v0__aoi211_4 abstract view
.subckt gf180mcu_fd_sc_mcu7t5v0__aoi211_4 A1 A2 B C ZN VDD VNW VPW VSS
.ends

* Black-box entry subcircuit for gf180mcu_fd_sc_mcu7t5v0__nand2_2 abstract view
.subckt gf180mcu_fd_sc_mcu7t5v0__nand2_2 A1 A2 ZN VDD VNW VPW VSS
.ends

* Black-box entry subcircuit for gf180mcu_fd_sc_mcu7t5v0__and4_2 abstract view
.subckt gf180mcu_fd_sc_mcu7t5v0__and4_2 A1 A2 A3 A4 Z VDD VNW VPW VSS
.ends

* Black-box entry subcircuit for gf180mcu_fd_sc_mcu7t5v0__aoi222_1 abstract view
.subckt gf180mcu_fd_sc_mcu7t5v0__aoi222_1 A1 A2 B1 B2 C1 C2 ZN VDD VNW VPW VSS
.ends

* Black-box entry subcircuit for gf180mcu_fd_sc_mcu7t5v0__aoi221_2 abstract view
.subckt gf180mcu_fd_sc_mcu7t5v0__aoi221_2 A1 A2 B1 B2 C ZN VDD VNW VPW VSS
.ends

* Black-box entry subcircuit for gf180mcu_fd_sc_mcu7t5v0__fillcap_32 abstract view
.subckt gf180mcu_fd_sc_mcu7t5v0__fillcap_32 VDD VNW VPW VSS
.ends

* Black-box entry subcircuit for gf180mcu_fd_sc_mcu7t5v0__or3_1 abstract view
.subckt gf180mcu_fd_sc_mcu7t5v0__or3_1 A1 A2 A3 Z VDD VNW VPW VSS
.ends

* Black-box entry subcircuit for gf180mcu_fd_sc_mcu7t5v0__tiel abstract view
.subckt gf180mcu_fd_sc_mcu7t5v0__tiel ZN VDD VNW VPW VSS
.ends

* Black-box entry subcircuit for gf180mcu_fd_sc_mcu7t5v0__xor2_2 abstract view
.subckt gf180mcu_fd_sc_mcu7t5v0__xor2_2 A1 A2 Z VDD VNW VPW VSS
.ends

* Black-box entry subcircuit for gf180mcu_fd_sc_mcu7t5v0__aoi211_1 abstract view
.subckt gf180mcu_fd_sc_mcu7t5v0__aoi211_1 A1 A2 B C ZN VDD VNW VPW VSS
.ends

* Black-box entry subcircuit for gf180mcu_fd_sc_mcu7t5v0__oai31_1 abstract view
.subckt gf180mcu_fd_sc_mcu7t5v0__oai31_1 A1 A2 A3 B ZN VDD VNW VPW VSS
.ends

* Black-box entry subcircuit for gf180mcu_fd_sc_mcu7t5v0__oai31_4 abstract view
.subckt gf180mcu_fd_sc_mcu7t5v0__oai31_4 A1 A2 A3 B ZN VDD VNW VPW VSS
.ends

* Black-box entry subcircuit for gf180mcu_fd_sc_mcu7t5v0__inv_2 abstract view
.subckt gf180mcu_fd_sc_mcu7t5v0__inv_2 I ZN VDD VNW VPW VSS
.ends

* Black-box entry subcircuit for gf180mcu_fd_sc_mcu7t5v0__mux2_2 abstract view
.subckt gf180mcu_fd_sc_mcu7t5v0__mux2_2 I0 I1 S Z VDD VNW VPW VSS
.ends

* Black-box entry subcircuit for gf180mcu_fd_sc_mcu7t5v0__or2_4 abstract view
.subckt gf180mcu_fd_sc_mcu7t5v0__or2_4 A1 A2 Z VDD VNW VPW VSS
.ends

* Black-box entry subcircuit for gf180mcu_fd_sc_mcu7t5v0__xnor2_2 abstract view
.subckt gf180mcu_fd_sc_mcu7t5v0__xnor2_2 A1 A2 ZN VDD VNW VPW VSS
.ends

* Black-box entry subcircuit for gf180mcu_fd_sc_mcu7t5v0__or2_2 abstract view
.subckt gf180mcu_fd_sc_mcu7t5v0__or2_2 A1 A2 Z VDD VNW VPW VSS
.ends

* Black-box entry subcircuit for gf180mcu_fd_sc_mcu7t5v0__dffq_2 abstract view
.subckt gf180mcu_fd_sc_mcu7t5v0__dffq_2 D CLK Q VDD VNW VPW VSS
.ends

* Black-box entry subcircuit for gf180mcu_fd_sc_mcu7t5v0__and3_2 abstract view
.subckt gf180mcu_fd_sc_mcu7t5v0__and3_2 A1 A2 A3 Z VDD VNW VPW VSS
.ends

* Black-box entry subcircuit for gf180mcu_fd_sc_mcu7t5v0__aoi21_4 abstract view
.subckt gf180mcu_fd_sc_mcu7t5v0__aoi21_4 A1 A2 B ZN VDD VNW VPW VSS
.ends

* Black-box entry subcircuit for gf180mcu_fd_sc_mcu7t5v0__and2_2 abstract view
.subckt gf180mcu_fd_sc_mcu7t5v0__and2_2 A1 A2 Z VDD VNW VPW VSS
.ends

* Black-box entry subcircuit for gf180mcu_fd_sc_mcu7t5v0__clkbuf_16 abstract view
.subckt gf180mcu_fd_sc_mcu7t5v0__clkbuf_16 I Z VDD VNW VPW VSS
.ends

* Black-box entry subcircuit for gf180mcu_fd_sc_mcu7t5v0__oai32_2 abstract view
.subckt gf180mcu_fd_sc_mcu7t5v0__oai32_2 A1 A2 A3 B1 B2 ZN VDD VNW VPW VSS
.ends

* Black-box entry subcircuit for gf180mcu_fd_sc_mcu7t5v0__dlya_2 abstract view
.subckt gf180mcu_fd_sc_mcu7t5v0__dlya_2 I Z VDD VNW VPW VSS
.ends

.subckt wrapped_sn76489 custom_settings[0] custom_settings[1] io_in_1[0] io_in_1[1]
+ io_in_1[2] io_in_1[3] io_in_1[4] io_in_1[5] io_in_1[6] io_in_1[7] io_in_2 io_out[0]
+ io_out[10] io_out[11] io_out[12] io_out[17] io_out[18] io_out[19] io_out[20] io_out[21]
+ io_out[22] io_out[23] io_out[24] io_out[25] io_out[26] io_out[27] io_out[4] io_out[5]
+ io_out[6] io_out[7] io_out[8] io_out[9] rst_n vdd vss wb_clk_i io_out[15] io_out[14]
+ io_out[13] io_out[3] io_out[2] io_out[1] io_out[16]
X_2037_ _0328_ _0329_ _0331_ _0080_ vdd vdd vss vss gf180mcu_fd_sc_mcu7t5v0__aoi21_1
XANTENNA__1343__B _0720_ vdd vdd vss vss gf180mcu_fd_sc_mcu7t5v0__antenna
X_2106_ _0373_ _0389_ vdd vdd vss vss gf180mcu_fd_sc_mcu7t5v0__clkbuf_1
XTAP_TAPCELL_ROW_52_404 vdd vss gf180mcu_fd_sc_mcu7t5v0__filltie
XFILLER_0_4_160 vdd vdd vss vss gf180mcu_fd_sc_mcu7t5v0__fill_1
XFILLER_0_17_277 vdd vdd vss vss gf180mcu_fd_sc_mcu7t5v0__fill_2
XANTENNA__2084__B _0366_ vdd vdd vss vss gf180mcu_fd_sc_mcu7t5v0__antenna
Xrebuffer7 _0820_ net47 vdd vdd vss vss gf180mcu_fd_sc_mcu7t5v0__clkbuf_1
XFILLER_0_2_119 vdd vdd vss vss gf180mcu_fd_sc_mcu7t5v0__fill_2
XFILLER_0_48_37 vdd vdd vss vss gf180mcu_fd_sc_mcu7t5v0__fill_2
X_1270_ _0715_ _0716_ _0718_ _0719_ vdd vdd vss vss gf180mcu_fd_sc_mcu7t5v0__nor3_4
X_2655_ _0129_ clknet_4_15_0_wb_clk_i tt_um_rejunity_sn76489.pwm.accumulator\[10\]
+ vdd vdd vss vss gf180mcu_fd_sc_mcu7t5v0__dffq_1
X_1606_ _1048_ _1049_ _1050_ vdd vdd vss vss gf180mcu_fd_sc_mcu7t5v0__or2_1
XFILLER_0_22_280 vdd vdd vss vss gf180mcu_fd_sc_mcu7t5v0__fill_2
XTAP_TAPCELL_ROW_14_194 vdd vss gf180mcu_fd_sc_mcu7t5v0__filltie
XFILLER_0_14_236 vdd vdd vss vss gf180mcu_fd_sc_mcu7t5v0__fill_2
X_1537_ _0951_ _0983_ vdd vdd vss vss gf180mcu_fd_sc_mcu7t5v0__buf_1
X_1468_ _0916_ _0911_ _0917_ vdd vdd vss vss gf180mcu_fd_sc_mcu7t5v0__xor2_1
X_1399_ _0839_ _0847_ _0848_ vdd vdd vss vss gf180mcu_fd_sc_mcu7t5v0__xnor2_1
X_2586_ _0060_ clknet_4_10_0_wb_clk_i tt_um_rejunity_sn76489.noise\[0\].gen.lfsr\[7\]
+ vdd vdd vss vss gf180mcu_fd_sc_mcu7t5v0__dffq_1
XFILLER_0_37_317 vdd vdd vss vss gf180mcu_fd_sc_mcu7t5v0__fill_1
XANTENNA__1978__A2 net1 vdd vdd vss vss gf180mcu_fd_sc_mcu7t5v0__antenna
XANTENNA__2672__CLK clknet_4_15_0_wb_clk_i vdd vdd vss vss gf180mcu_fd_sc_mcu7t5v0__antenna
XANTENNA__2079__B _0366_ vdd vdd vss vss gf180mcu_fd_sc_mcu7t5v0__antenna
XANTENNA__1666__A1 _1102_ vdd vdd vss vss gf180mcu_fd_sc_mcu7t5v0__antenna
XTAP_TAPCELL_ROW_28_275 vdd vss gf180mcu_fd_sc_mcu7t5v0__filltie
XFILLER_0_51_342 vdd vdd vss vss gf180mcu_fd_sc_mcu7t5v0__fill_2
XFILLER_0_36_383 vdd vdd vss vss gf180mcu_fd_sc_mcu7t5v0__fill_2
X_2440_ tt_um_rejunity_sn76489.control_tone_freq\[0\]\[6\] _0648_ _0646_ _0649_ vdd
+ vdd vss vss gf180mcu_fd_sc_mcu7t5v0__oai21_1
X_2371_ _0599_ _0146_ vdd vdd vss vss gf180mcu_fd_sc_mcu7t5v0__clkinv_1
X_1322_ tt_um_rejunity_sn76489.chan\[1\].attenuation.control\[1\] _0771_ vdd vdd vss
+ vss gf180mcu_fd_sc_mcu7t5v0__buf_3
XANTENNA__1672__I net7 vdd vdd vss vss gf180mcu_fd_sc_mcu7t5v0__antenna
XANTENNA__1409__A1 _0716_ vdd vdd vss vss gf180mcu_fd_sc_mcu7t5v0__antenna
XFILLER_0_34_309 vdd vdd vss vss gf180mcu_fd_sc_mcu7t5v0__fillcap_4
XFILLER_0_24_94 vdd vdd vss vss gf180mcu_fd_sc_mcu7t5v0__fill_2
XFILLER_0_19_317 vdd vdd vss vss gf180mcu_fd_sc_mcu7t5v0__fill_2
X_2569_ _0043_ clknet_4_5_0_wb_clk_i tt_um_rejunity_sn76489.genblk4\[0\].pwm.accumulator\[8\]
+ vdd vdd vss vss gf180mcu_fd_sc_mcu7t5v0__dffq_1
XANTENNA__2545__CLK clknet_4_7_0_wb_clk_i vdd vdd vss vss gf180mcu_fd_sc_mcu7t5v0__antenna
XFILLER_0_40_82 vdd vdd vss vss gf180mcu_fd_sc_mcu7t5v0__fill_2
X_2707_ _0181_ clknet_4_1_0_wb_clk_i tt_um_rejunity_sn76489.chan\[1\].attenuation.control\[3\]
+ vdd vdd vss vss gf180mcu_fd_sc_mcu7t5v0__dffq_1
X_2638_ _0112_ clknet_4_0_0_wb_clk_i tt_um_rejunity_sn76489.tone\[0\].gen.counter\[4\]
+ vdd vdd vss vss gf180mcu_fd_sc_mcu7t5v0__dffq_1
XTAP_TAPCELL_ROW_2_132 vdd vss gf180mcu_fd_sc_mcu7t5v0__filltie
XANTENNA__2695__CLK clknet_4_1_0_wb_clk_i vdd vdd vss vss gf180mcu_fd_sc_mcu7t5v0__antenna
XTAP_TAPCELL_ROW_25_256 vdd vss gf180mcu_fd_sc_mcu7t5v0__filltie
XFILLER_0_25_309 vdd vdd vss vss gf180mcu_fd_sc_mcu7t5v0__fill_2
XFILLER_0_18_383 vdd vdd vss vss gf180mcu_fd_sc_mcu7t5v0__fill_2
XANTENNA__1887__A1 _0194_ vdd vdd vss vss gf180mcu_fd_sc_mcu7t5v0__antenna
X_1871_ _0194_ _0202_ _0043_ vdd vdd vss vss gf180mcu_fd_sc_mcu7t5v0__nor2_1
XANTENNA__2568__CLK clknet_4_5_0_wb_clk_i vdd vdd vss vss gf180mcu_fd_sc_mcu7t5v0__antenna
XFILLER_0_43_139 vdd vdd vss vss gf180mcu_fd_sc_mcu7t5v0__fill_1
XFILLER_0_9_16 vdd vdd vss vss gf180mcu_fd_sc_mcu7t5v0__fill_2
X_1940_ tt_um_rejunity_sn76489.noise\[0\].gen.lfsr\[7\] _0252_ _0255_ vdd vdd vss
+ vss gf180mcu_fd_sc_mcu7t5v0__nand2_1
XFILLER_0_51_194 vdd vdd vss vss gf180mcu_fd_sc_mcu7t5v0__fill_2
XFILLER_0_24_353 vdd vdd vss vss gf180mcu_fd_sc_mcu7t5v0__fill_2
XANTENNA__2119__A2 _0353_ vdd vdd vss vss gf180mcu_fd_sc_mcu7t5v0__antenna
X_2423_ _1104_ _0637_ vdd vdd vss vss gf180mcu_fd_sc_mcu7t5v0__clkbuf_2
X_2285_ tt_um_rejunity_sn76489.pwm.accumulator\[4\] net19 _0536_ vdd vdd vss vss gf180mcu_fd_sc_mcu7t5v0__nand2_1
X_2354_ _0587_ _0137_ _0588_ _0140_ vdd vdd vss vss gf180mcu_fd_sc_mcu7t5v0__oai21_1
X_1305_ tt_um_rejunity_sn76489.chan\[0\].attenuation.control\[0\] _0754_ vdd vdd vss
+ vss gf180mcu_fd_sc_mcu7t5v0__buf_4
XFILLER_0_19_72 vdd vdd vss vss gf180mcu_fd_sc_mcu7t5v0__fill_1
XANTENNA__2447__B _0652_ vdd vdd vss vss gf180mcu_fd_sc_mcu7t5v0__antenna
XANTENNA_clkbuf_4_5_0_wb_clk_i_I clknet_0_wb_clk_i vdd vdd vss vss gf180mcu_fd_sc_mcu7t5v0__antenna
XTAP_TAPCELL_ROW_30_281 vdd vss gf180mcu_fd_sc_mcu7t5v0__filltie
XTAP_TAPCELL_ROW_22_237 vdd vss gf180mcu_fd_sc_mcu7t5v0__filltie
XFILLER_0_15_331 vdd vdd vss vss gf180mcu_fd_sc_mcu7t5v0__fill_2
XANTENNA__2710__CLK clknet_4_1_0_wb_clk_i vdd vdd vss vss gf180mcu_fd_sc_mcu7t5v0__antenna
XFILLER_0_21_356 vdd vdd vss vss gf180mcu_fd_sc_mcu7t5v0__fill_2
XFILLER_0_21_312 vdd vdd vss vss gf180mcu_fd_sc_mcu7t5v0__fill_2
XFILLER_0_18_191 vdd vdd vss vss gf180mcu_fd_sc_mcu7t5v0__fill_1
X_2070_ tt_um_rejunity_sn76489.control_tone_freq\[2\]\[0\] _0358_ tt_um_rejunity_sn76489.tone\[2\].gen.counter\[0\]
+ _0359_ vdd vdd vss vss gf180mcu_fd_sc_mcu7t5v0__aoi21_2
XTAP_TAPCELL_ROW_44_362 vdd vss gf180mcu_fd_sc_mcu7t5v0__filltie
XTAP_TAPCELL_ROW_36_318 vdd vss gf180mcu_fd_sc_mcu7t5v0__filltie
X_1785_ _1195_ _1197_ _1157_ _1198_ vdd vdd vss vss gf180mcu_fd_sc_mcu7t5v0__oai21_1
X_1854_ _1252_ _1253_ _1254_ _0040_ vdd vdd vss vss gf180mcu_fd_sc_mcu7t5v0__aoi21_1
XANTENNA__1260__A2 _0708_ vdd vdd vss vss gf180mcu_fd_sc_mcu7t5v0__antenna
XFILLER_0_24_172 vdd vdd vss vss gf180mcu_fd_sc_mcu7t5v0__fill_2
X_1923_ tt_um_rejunity_sn76489.noise\[0\].gen.lfsr\[3\] _0238_ _0243_ vdd vdd vss
+ vss gf180mcu_fd_sc_mcu7t5v0__nand2_1
X_2406_ _0614_ _0624_ vdd vdd vss vss gf180mcu_fd_sc_mcu7t5v0__buf_1
XFILLER_0_12_323 vdd vdd vss vss gf180mcu_fd_sc_mcu7t5v0__fill_1
XANTENNA__2276__A1 _0456_ vdd vdd vss vss gf180mcu_fd_sc_mcu7t5v0__antenna
X_2268_ tt_um_rejunity_sn76489.pwm.accumulator\[2\] _0521_ _0522_ vdd vdd vss vss
+ gf180mcu_fd_sc_mcu7t5v0__xor2_1
X_2337_ tt_um_rejunity_sn76489.spi_dac_i_2.counter\[0\] tt_um_rejunity_sn76489.spi_dac_i_2.counter\[1\]
+ tt_um_rejunity_sn76489.spi_dac_i_2.counter\[2\] _0578_ vdd vdd vss vss gf180mcu_fd_sc_mcu7t5v0__and3_1
XFILLER_0_27_2 vdd vdd vss vss gf180mcu_fd_sc_mcu7t5v0__fillcap_4
X_2199_ tt_um_rejunity_sn76489.control_tone_freq\[0\]\[0\] _0465_ tt_um_rejunity_sn76489.tone\[0\].gen.counter\[0\]
+ _0466_ vdd vdd vss vss gf180mcu_fd_sc_mcu7t5v0__aoi21_2
XANTENNA__1315__A3 _0763_ vdd vdd vss vss gf180mcu_fd_sc_mcu7t5v0__antenna
XFILLER_0_1_72 vdd vdd vss vss gf180mcu_fd_sc_mcu7t5v0__fillcap_4
XANTENNA__2200__A1 _0289_ vdd vdd vss vss gf180mcu_fd_sc_mcu7t5v0__antenna
XFILLER_0_7_394 vdd vdd vss vss gf180mcu_fd_sc_mcu7t5v0__fill_2
XFILLER_0_53_212 vdd vdd vss vss gf180mcu_fd_sc_mcu7t5v0__fill_1
XTAP_TAPCELL_ROW_41_343 vdd vss gf180mcu_fd_sc_mcu7t5v0__filltie
XFILLER_0_38_242 vdd vdd vss vss gf180mcu_fd_sc_mcu7t5v0__fill_2
X_1570_ _1006_ _1015_ vdd vdd vss vss gf180mcu_fd_sc_mcu7t5v0__buf_1
XANTENNA__2606__CLK clknet_4_7_0_wb_clk_i vdd vdd vss vss gf180mcu_fd_sc_mcu7t5v0__antenna
X_2053_ _0343_ _0344_ _0330_ _0345_ vdd vdd vss vss gf180mcu_fd_sc_mcu7t5v0__oai21_1
Xrebuffer17 _0898_ net57 vdd vdd vss vss gf180mcu_fd_sc_mcu7t5v0__clkbuf_2
X_2122_ _0280_ _0403_ vdd vdd vss vss gf180mcu_fd_sc_mcu7t5v0__buf_1
XFILLER_0_44_212 vdd vdd vss vss gf180mcu_fd_sc_mcu7t5v0__fill_1
X_1768_ tt_um_rejunity_sn76489.genblk4\[1\].pwm.accumulator\[1\] _0818_ _1183_ vdd
+ vdd vss vss gf180mcu_fd_sc_mcu7t5v0__nor2_1
X_1837_ tt_um_rejunity_sn76489.genblk4\[0\].pwm.accumulator\[2\] _0892_ _1240_ vdd
+ vdd vss vss gf180mcu_fd_sc_mcu7t5v0__nand2_1
X_1906_ tt_um_rejunity_sn76489.noise\[0\].gen.counter\[4\] tt_um_rejunity_sn76489.noise\[0\].gen.counter\[5\]
+ tt_um_rejunity_sn76489.noise\[0\].gen.counter\[6\] _0952_ tt_um_rejunity_sn76489.control_noise\[0\]\[0\]
+ tt_um_rejunity_sn76489.control_noise\[0\]\[1\] _0228_ vdd vdd vss vss gf180mcu_fd_sc_mcu7t5v0__mux4_1
XANTENNA__2430__A1 _0623_ vdd vdd vss vss gf180mcu_fd_sc_mcu7t5v0__antenna
XFILLER_0_4_397 vdd vdd vss vss gf180mcu_fd_sc_mcu7t5v0__fill_1
XANTENNA__2497__A1 _0655_ vdd vdd vss vss gf180mcu_fd_sc_mcu7t5v0__antenna
X_1699_ tt_um_rejunity_sn76489.control_tone_freq\[2\]\[3\] _1122_ _1127_ _1128_ vdd
+ vdd vss vss gf180mcu_fd_sc_mcu7t5v0__oai21_1
XANTENNA__2249__A1 _0286_ vdd vdd vss vss gf180mcu_fd_sc_mcu7t5v0__antenna
XFILLER_0_35_245 vdd vdd vss vss gf180mcu_fd_sc_mcu7t5v0__fillcap_4
XFILLER_0_35_212 vdd vdd vss vss gf180mcu_fd_sc_mcu7t5v0__fill_2
XANTENNA__2629__CLK clknet_4_2_0_wb_clk_i vdd vdd vss vss gf180mcu_fd_sc_mcu7t5v0__antenna
Xoutput20 net20 io_out[21] vdd vdd vss vss gf180mcu_fd_sc_mcu7t5v0__buf_8
XANTENNA__2488__A1 _0654_ vdd vdd vss vss gf180mcu_fd_sc_mcu7t5v0__antenna
X_1622_ _1063_ _1064_ _1065_ vdd vdd vss vss gf180mcu_fd_sc_mcu7t5v0__nand2_1
X_2671_ _0145_ clknet_4_15_0_wb_clk_i tt_um_rejunity_sn76489.spi_dac_i_2.spi_dat_buff\[6\]
+ vdd vdd vss vss gf180mcu_fd_sc_mcu7t5v0__dffq_1
XFILLER_0_41_204 vdd vdd vss vss gf180mcu_fd_sc_mcu7t5v0__fill_2
XFILLER_0_26_278 vdd vdd vss vss gf180mcu_fd_sc_mcu7t5v0__fill_2
X_1553_ _0997_ _0998_ _0999_ vdd vdd vss vss gf180mcu_fd_sc_mcu7t5v0__nand2_1
X_1484_ _0909_ _0910_ _0932_ vdd vdd vss vss gf180mcu_fd_sc_mcu7t5v0__nor2_1
XANTENNA__2479__A1 _0634_ vdd vdd vss vss gf180mcu_fd_sc_mcu7t5v0__antenna
XTAP_TAPCELL_ROW_52_405 vdd vss gf180mcu_fd_sc_mcu7t5v0__filltie
X_2036_ _0328_ _0329_ _0330_ _0331_ vdd vdd vss vss gf180mcu_fd_sc_mcu7t5v0__oai21_1
X_2105_ _0388_ _0091_ vdd vdd vss vss gf180mcu_fd_sc_mcu7t5v0__clkinv_1
XFILLER_0_9_412 vdd vdd vss vss gf180mcu_fd_sc_mcu7t5v0__fillcap_8
XANTENNA__2403__A1 _0620_ vdd vdd vss vss gf180mcu_fd_sc_mcu7t5v0__antenna
XFILLER_0_40_292 vdd vdd vss vss gf180mcu_fd_sc_mcu7t5v0__fill_1
XFILLER_0_4_194 vdd vdd vss vss gf180mcu_fd_sc_mcu7t5v0__fill_2
Xrebuffer8 _0779_ net48 vdd vdd vss vss gf180mcu_fd_sc_mcu7t5v0__clkbuf_1
XFILLER_0_3_18 vdd vdd vss vss gf180mcu_fd_sc_mcu7t5v0__fill_1
XTAP_TAPCELL_ROW_8_160 vdd vss gf180mcu_fd_sc_mcu7t5v0__filltie
XFILLER_0_46_307 vdd vdd vss vss gf180mcu_fd_sc_mcu7t5v0__fill_2
XTAP_TAPCELL_ROW_14_195 vdd vss gf180mcu_fd_sc_mcu7t5v0__filltie
X_2654_ _0128_ clknet_4_13_0_wb_clk_i tt_um_rejunity_sn76489.pwm.accumulator\[9\]
+ vdd vdd vss vss gf180mcu_fd_sc_mcu7t5v0__dffq_1
X_1536_ _0976_ _0979_ _0981_ _0982_ vdd vdd vss vss gf180mcu_fd_sc_mcu7t5v0__aoi21_1
X_1605_ _0960_ _0844_ _1049_ vdd vdd vss vss gf180mcu_fd_sc_mcu7t5v0__nor2_1
XFILLER_0_1_142 vdd vdd vss vss gf180mcu_fd_sc_mcu7t5v0__fill_1
X_2585_ _0059_ clknet_4_10_0_wb_clk_i tt_um_rejunity_sn76489.noise\[0\].gen.lfsr\[6\]
+ vdd vdd vss vss gf180mcu_fd_sc_mcu7t5v0__dffq_1
X_1467_ _0830_ _0912_ _0915_ _0916_ vdd vdd vss vss gf180mcu_fd_sc_mcu7t5v0__aoi21_1
X_1398_ _0840_ net50 _0843_ _0844_ _0846_ _0847_ vdd vdd vss vss gf180mcu_fd_sc_mcu7t5v0__aoi221_4
XFILLER_0_54_81 vdd vdd vss vss gf180mcu_fd_sc_mcu7t5v0__fillcap_4
X_2019_ tt_um_rejunity_sn76489.genblk4\[3\].pwm.accumulator\[2\] _0869_ _0316_ vdd
+ vdd vss vss gf180mcu_fd_sc_mcu7t5v0__or2_1
XFILLER_0_9_275 vdd vdd vss vss gf180mcu_fd_sc_mcu7t5v0__fill_2
XFILLER_0_9_286 vdd vdd vss vss gf180mcu_fd_sc_mcu7t5v0__fill_2
XFILLER_0_9_297 vdd vdd vss vss gf180mcu_fd_sc_mcu7t5v0__fill_2
XANTENNA__2526__D _0000_ vdd vdd vss vss gf180mcu_fd_sc_mcu7t5v0__antenna
XFILLER_0_28_307 vdd vdd vss vss gf180mcu_fd_sc_mcu7t5v0__fill_2
XANTENNA__2114__I _0280_ vdd vdd vss vss gf180mcu_fd_sc_mcu7t5v0__antenna
X_2370_ tt_um_rejunity_sn76489.spi_dac_i_2.spi_dat_buff\[7\] _0596_ _0593_ tt_um_rejunity_sn76489.spi_dac_i_2.spi_dat_buff\[6\]
+ _0597_ net22 _0599_ vdd vdd vss vss gf180mcu_fd_sc_mcu7t5v0__aoi222_2
Xclkbuf_4_12_0_wb_clk_i clknet_0_wb_clk_i clknet_4_12_0_wb_clk_i vdd vdd vss vss gf180mcu_fd_sc_mcu7t5v0__clkbuf_8
X_1321_ _0767_ _0769_ _0770_ vdd vdd vss vss gf180mcu_fd_sc_mcu7t5v0__nor2_2
XTAP_TAPCELL_ROW_19_221 vdd vss gf180mcu_fd_sc_mcu7t5v0__filltie
XFILLER_0_40_50 vdd vdd vss vss gf180mcu_fd_sc_mcu7t5v0__fill_2
X_2706_ _0180_ clknet_4_1_0_wb_clk_i tt_um_rejunity_sn76489.chan\[1\].attenuation.control\[2\]
+ vdd vdd vss vss gf180mcu_fd_sc_mcu7t5v0__dffq_4
X_2568_ _0042_ clknet_4_5_0_wb_clk_i tt_um_rejunity_sn76489.genblk4\[0\].pwm.accumulator\[7\]
+ vdd vdd vss vss gf180mcu_fd_sc_mcu7t5v0__dffq_1
XANTENNA__1345__B2 _0716_ vdd vdd vss vss gf180mcu_fd_sc_mcu7t5v0__antenna
X_1519_ _0963_ _0936_ _0835_ _0965_ _0966_ vdd vdd vss vss gf180mcu_fd_sc_mcu7t5v0__oai31_2
X_2637_ _0111_ clknet_4_0_0_wb_clk_i tt_um_rejunity_sn76489.tone\[0\].gen.counter\[3\]
+ vdd vdd vss vss gf180mcu_fd_sc_mcu7t5v0__dffq_1
XFILLER_0_10_251 vdd vdd vss vss gf180mcu_fd_sc_mcu7t5v0__fill_2
XPHY_EDGE_ROW_12_Right_12 vdd vss gf180mcu_fd_sc_mcu7t5v0__endcap
X_2499_ _0690_ _0692_ vdd vdd vss vss gf180mcu_fd_sc_mcu7t5v0__buf_1
XPHY_EDGE_ROW_21_Right_21 vdd vss gf180mcu_fd_sc_mcu7t5v0__endcap
XFILLER_0_52_107 vdd vdd vss vss gf180mcu_fd_sc_mcu7t5v0__fill_2
XTAP_TAPCELL_ROW_25_257 vdd vss gf180mcu_fd_sc_mcu7t5v0__filltie
XPHY_EDGE_ROW_30_Right_30 vdd vss gf180mcu_fd_sc_mcu7t5v0__endcap
X_1870_ tt_um_rejunity_sn76489.genblk4\[0\].pwm.accumulator\[8\] _1026_ _0201_ _0202_
+ vdd vdd vss vss gf180mcu_fd_sc_mcu7t5v0__xor3_1
XFILLER_0_36_192 vdd vdd vss vss gf180mcu_fd_sc_mcu7t5v0__fill_2
XFILLER_0_3_226 vdd vdd vss vss gf180mcu_fd_sc_mcu7t5v0__fill_2
X_2353_ tt_um_rejunity_sn76489.spi_dac_i_2.spi_dat_buff\[1\] _0000_ _0132_ tt_um_rejunity_sn76489.spi_dac_i_2.spi_dat_buff\[0\]
+ _0588_ vdd vdd vss vss gf180mcu_fd_sc_mcu7t5v0__aoi22_1
X_2422_ _0634_ _0629_ _0636_ _0160_ vdd vdd vss vss gf180mcu_fd_sc_mcu7t5v0__aoi21_1
X_2284_ _0533_ _0535_ _0123_ vdd vdd vss vss gf180mcu_fd_sc_mcu7t5v0__nor2_1
X_1304_ _0750_ _0751_ _0752_ _0753_ vdd vdd vss vss gf180mcu_fd_sc_mcu7t5v0__oai21_4
XANTENNA__2055__A2 _1018_ vdd vdd vss vss gf180mcu_fd_sc_mcu7t5v0__antenna
XFILLER_0_34_107 vdd vdd vss vss gf180mcu_fd_sc_mcu7t5v0__fill_1
XTAP_TAPCELL_ROW_22_238 vdd vss gf180mcu_fd_sc_mcu7t5v0__filltie
XFILLER_0_51_82 vdd vdd vss vss gf180mcu_fd_sc_mcu7t5v0__fill_2
XANTENNA__2662__CLK clknet_4_15_0_wb_clk_i vdd vdd vss vss gf180mcu_fd_sc_mcu7t5v0__antenna
XTAP_TAPCELL_ROW_30_282 vdd vss gf180mcu_fd_sc_mcu7t5v0__filltie
X_1999_ _0299_ _0296_ tt_um_rejunity_sn76489.noise\[0\].gen.counter\[5\] _0301_ vdd
+ vdd vss vss gf180mcu_fd_sc_mcu7t5v0__aoi21_1
XANTENNA__1557__A1 tt_um_rejunity_sn76489.chan\[2\].attenuation.control\[3\] vdd vdd
+ vss vss gf180mcu_fd_sc_mcu7t5v0__antenna
XTAP_TAPCELL_ROW_44_363 vdd vss gf180mcu_fd_sc_mcu7t5v0__filltie
XTAP_TAPCELL_ROW_36_319 vdd vss gf180mcu_fd_sc_mcu7t5v0__filltie
X_1922_ tt_um_rejunity_sn76489.noise\[0\].gen.lfsr\[2\] _0241_ _0242_ vdd vdd vss
+ vss gf180mcu_fd_sc_mcu7t5v0__nand2_1
XANTENNA__2535__CLK clknet_4_8_0_wb_clk_i vdd vdd vss vss gf180mcu_fd_sc_mcu7t5v0__antenna
X_1784_ _1196_ _1032_ _1197_ vdd vdd vss vss gf180mcu_fd_sc_mcu7t5v0__xor2_1
X_1853_ _1252_ _1253_ _1238_ _1254_ vdd vdd vss vss gf180mcu_fd_sc_mcu7t5v0__oai21_1
XANTENNA__2685__CLK clknet_4_2_0_wb_clk_i vdd vdd vss vss gf180mcu_fd_sc_mcu7t5v0__antenna
X_2336_ _0575_ tt_um_rejunity_sn76489.spi_dac_i_2.counter\[1\] tt_um_rejunity_sn76489.spi_dac_i_2.counter\[2\]
+ _0577_ vdd vdd vss vss gf180mcu_fd_sc_mcu7t5v0__aoi21_1
X_2405_ _0622_ _0623_ vdd vdd vss vss gf180mcu_fd_sc_mcu7t5v0__buf_1
XFILLER_0_46_82 vdd vdd vss vss gf180mcu_fd_sc_mcu7t5v0__fill_2
X_2267_ _0824_ _0864_ _0821_ _0521_ vdd vdd vss vss gf180mcu_fd_sc_mcu7t5v0__xor3_2
X_2198_ tt_um_rejunity_sn76489.tone\[0\].gen.counter\[9\] tt_um_rejunity_sn76489.tone\[0\].gen.counter\[8\]
+ _0463_ _0464_ _0465_ vdd vdd vss vss gf180mcu_fd_sc_mcu7t5v0__nor4_4