*SPEF "ieee 1481-1999"
*DESIGN "blinker"
*DATE "11:11:11 Fri 11 11, 1111"
*VENDOR "OpenRCX"
*PROGRAM "Parallel Extraction"
*VERSION "1.0"
*DESIGN_FLOW "NAME_SCOPE LOCAL" "PIN_CAP NONE"
*DIVIDER /
*DELIMITER :
*BUS_DELIMITER []
*T_UNIT 1 NS
*C_UNIT 1 PF
*R_UNIT 1 OHM
*L_UNIT 1 HENRY

*NAME_MAP
*1 io_out[0]
*2 io_out[1]
*3 io_out[2]
*4 rst_n
*7 wb_clk_i
*8 LFSR\[0\]
*9 LFSR\[1\]
*10 LFSR\[2\]
*11 LFSR\[3\]
*12 LFSR\[4\]
*13 LFSR\[5\]
*14 LFSR\[6\]
*15 OP_reg
*16 PC\[0\]
*17 PC\[1\]
*18 PC\[2\]
*19 PC\[3\]
*20 PC\[4\]
*21 PC\[5\]
*22 _000_
*23 _001_
*24 _002_
*25 _003_
*26 _004_
*27 _005_
*28 _006_
*29 _007_
*30 _008_
*31 _009_
*32 _010_
*33 _011_
*34 _012_
*35 _013_
*36 _014_
*37 _015_
*38 _016_
*39 _017_
*40 _018_
*41 _019_
*42 _020_
*43 _021_
*44 _022_
*45 _023_
*46 _024_
*47 _025_
*48 _026_
*49 _027_
*50 _028_
*51 _029_
*52 _030_
*53 _031_
*54 _032_
*55 _033_
*56 _034_
*57 _035_
*58 _036_
*59 _037_
*60 _038_
*61 _039_
*62 _040_
*63 _041_
*64 _042_
*65 _043_
*66 _044_
*67 _045_
*68 _046_
*69 _047_
*70 _048_
*71 _049_
*72 _050_
*73 _051_
*74 _052_
*75 _053_
*76 _054_
*77 _055_
*78 _056_
*79 _057_
*80 _058_
*81 _059_
*82 _060_
*83 _061_
*84 _062_
*85 _063_
*86 _064_
*87 _065_
*88 _066_
*89 _067_
*90 _068_
*91 _069_
*92 _070_
*93 _071_
*94 _072_
*95 _073_
*96 _074_
*97 _075_
*98 _076_
*99 _077_
*100 _078_
*101 _079_
*102 _080_
*103 _081_
*104 _082_
*105 _083_
*106 _084_
*107 _085_
*108 _086_
*109 _087_
*110 _088_
*111 _089_
*112 _090_
*113 _091_
*114 _092_
*115 _093_
*116 _094_
*117 _095_
*118 _096_
*119 _097_
*120 _098_
*121 _099_
*122 _100_
*123 _101_
*124 _102_
*125 _103_
*126 _104_
*127 _105_
*128 _106_
*129 _107_
*130 _108_
*131 _109_
*132 _110_
*133 _111_
*134 _112_
*135 _113_
*136 _114_
*137 _115_
*138 _116_
*139 _117_
*140 _118_
*141 _119_
*142 _120_
*143 _121_
*144 _122_
*145 _123_
*146 _124_
*147 _125_
*148 _126_
*149 _127_
*150 _128_
*151 _129_
*152 _130_
*153 _131_
*154 _132_
*155 _133_
*156 _134_
*157 _135_
*158 _136_
*159 _137_
*160 _138_
*161 _139_
*162 _140_
*163 _141_
*164 _142_
*165 _143_
*166 _144_
*167 _145_
*168 _146_
*169 _147_
*170 _148_
*171 _149_
*172 _150_
*173 _151_
*174 _152_
*175 _153_
*176 _154_
*177 _155_
*178 _156_
*179 _157_
*180 _158_
*181 _159_
*182 _160_
*183 _161_
*184 _162_
*185 _163_
*186 _164_
*187 _165_
*188 _166_
*189 _167_
*190 _168_
*191 _169_
*192 _170_
*193 _171_
*194 _172_
*195 _173_
*196 _174_
*197 _175_
*198 _176_
*199 _177_
*200 _178_
*201 _179_
*202 _180_
*203 _181_
*204 _182_
*205 _183_
*206 _184_
*207 _185_
*208 _186_
*209 _187_
*210 _188_
*211 _189_
*212 _190_
*213 _191_
*214 _192_
*215 _193_
*216 _194_
*217 _195_
*218 _196_
*219 _197_
*220 _198_
*221 _199_
*222 _200_
*223 _201_
*224 _202_
*225 _203_
*226 _204_
*227 _205_
*228 _206_
*229 _207_
*230 _208_
*231 _209_
*232 _210_
*233 _211_
*234 _212_
*235 _213_
*236 _214_
*237 _215_
*238 _216_
*239 _217_
*240 _218_
*241 _219_
*242 _220_
*243 _221_
*244 _222_
*245 _223_
*246 _224_
*247 _225_
*248 _226_
*249 _227_
*250 _228_
*251 _229_
*252 _230_
*253 _231_
*254 _232_
*255 _233_
*256 _234_
*257 _235_
*258 _236_
*259 _237_
*260 _238_
*261 _239_
*262 _240_
*263 _241_
*264 _242_
*265 _243_
*266 _244_
*267 _245_
*268 _246_
*269 _247_
*270 _248_
*271 _249_
*272 _250_
*273 _251_
*274 _252_
*275 _253_
*276 _254_
*277 _255_
*278 _256_
*279 _257_
*280 _258_
*281 _259_
*282 _260_
*283 _261_
*284 _262_
*285 _263_
*286 _264_
*287 _265_
*288 _266_
*289 _267_
*290 _268_
*291 _269_
*292 _270_
*293 _271_
*294 _272_
*295 _273_
*296 _274_
*297 _275_
*298 _276_
*299 _277_
*300 _278_
*301 _279_
*302 _280_
*303 _281_
*304 _282_
*305 _283_
*306 _284_
*307 _285_
*308 _286_
*309 _287_
*310 _288_
*311 _289_
*312 _290_
*313 _291_
*314 _292_
*315 _293_
*316 _294_
*317 _295_
*318 _296_
*319 _297_
*320 _298_
*321 _299_
*322 _300_
*323 _301_
*324 _302_
*325 _303_
*326 _304_
*327 _305_
*328 _306_
*329 _307_
*330 _308_
*331 _309_
*332 _310_
*333 _311_
*334 _312_
*335 _313_
*336 _314_
*337 _315_
*338 _316_
*339 _317_
*340 _318_
*341 _319_
*342 _320_
*343 _321_
*344 _322_
*345 _323_
*346 _324_
*347 _325_
*348 _326_
*349 _327_
*350 _328_
*351 _329_
*352 _330_
*353 _331_
*354 _332_
*355 _333_
*356 _334_
*357 _335_
*358 _336_
*359 _337_
*360 _338_
*361 _339_
*362 _340_
*363 _341_
*364 _342_
*365 _343_
*366 _344_
*367 _345_
*368 _346_
*369 _347_
*370 _348_
*371 _349_
*372 _350_
*373 _351_
*374 _352_
*375 _353_
*376 _354_
*377 _355_
*378 _356_
*379 _357_
*380 _358_
*381 _359_
*382 _360_
*383 _361_
*384 _362_
*385 _363_
*386 _364_
*387 _365_
*388 _366_
*389 _367_
*390 _368_
*391 _369_
*392 _370_
*393 _371_
*394 _372_
*395 _373_
*396 _374_
*397 _375_
*398 _376_
*399 _377_
*400 _378_
*401 _379_
*402 _380_
*403 _381_
*404 _382_
*405 _383_
*406 _384_
*407 _385_
*408 _386_
*409 _387_
*410 _388_
*411 _389_
*412 _390_
*413 _391_
*414 _392_
*415 _393_
*416 _394_
*417 _395_
*418 _396_
*419 _397_
*420 _398_
*421 _399_
*422 _400_
*423 _401_
*424 _402_
*425 _403_
*426 _404_
*427 _405_
*428 _406_
*429 _407_
*430 _408_
*431 _409_
*432 _410_
*433 _411_
*434 _412_
*435 _413_
*436 _414_
*437 _415_
*438 _416_
*439 _417_
*440 _418_
*441 _419_
*442 _420_
*443 _421_
*444 _422_
*445 _423_
*446 _424_
*447 _425_
*448 _426_
*449 _427_
*450 clknet_0_wb_clk_i
*451 clknet_3_0__leaf_wb_clk_i
*452 clknet_3_1__leaf_wb_clk_i
*453 clknet_3_2__leaf_wb_clk_i
*454 clknet_3_3__leaf_wb_clk_i
*455 clknet_3_4__leaf_wb_clk_i
*456 clknet_3_5__leaf_wb_clk_i
*457 clknet_3_6__leaf_wb_clk_i
*458 clknet_3_7__leaf_wb_clk_i
*459 clock_div\[0\]
*460 clock_div\[1\]
*461 clock_div\[2\]
*462 clock_div\[3\]
*463 clock_div\[4\]
*464 clock_div\[5\]
*465 clock_div\[6\]
*466 clock_div\[7\]
*467 clock_div\[8\]
*468 counter\[0\]
*469 counter\[10\]
*470 counter\[11\]
*471 counter\[12\]
*472 counter\[13\]
*473 counter\[14\]
*474 counter\[15\]
*475 counter\[16\]
*476 counter\[17\]
*477 counter\[18\]
*478 counter\[19\]
*479 counter\[1\]
*480 counter\[20\]
*481 counter\[21\]
*482 counter\[22\]
*483 counter\[3\]
*484 counter\[4\]
*485 counter\[5\]
*486 counter\[6\]
*487 counter\[7\]
*488 counter\[8\]
*489 counter\[9\]
*490 just_inc
*491 just_rst
*492 master_clk_div\[0\]
*493 master_clk_div\[1\]
*494 master_clk_div\[2\]
*495 master_clk_div\[3\]
*496 master_clk_div\[4\]
*497 master_clk_div\[5\]
*498 master_clk_div\[6\]
*499 net1
*500 net2
*501 net3
*502 net4
*503 net5
*504 prev_clk_div
*505 rhythm_LFSR\[0\]
*506 rhythm_LFSR\[1\]
*507 rhythm_LFSR\[2\]
*508 rhythm_LFSR\[3\]
*509 tempo_LFSR\[0\]
*510 tempo_LFSR\[1\]
*511 tempo_LFSR\[2\]
*512 tempo_LFSR\[3\]
*513 tune_ROM\[0\]
*514 tune_ROM\[1\]
*515 tune_ROM\[2\]
*516 tune_ROM\[3\]
*517 tune_ROM\[4\]
*518 tune_ROM\[5\]
*519 ANTENNA__430__I
*520 ANTENNA__439__B
*521 ANTENNA__444__I
*522 ANTENNA__450__B
*523 ANTENNA__452__A2
*524 ANTENNA__457__A2
*525 ANTENNA__457__A3
*526 ANTENNA__458__A1
*527 ANTENNA__470__A1
*528 ANTENNA__481__A2
*529 ANTENNA__490__A1
*530 ANTENNA__567__A1
*531 ANTENNA__581__I
*532 ANTENNA__599__A1
*533 ANTENNA__603__I
*534 ANTENNA__606__A1
*535 ANTENNA__674__A1
*536 ANTENNA__686__A1
*537 ANTENNA__689__I
*538 ANTENNA__695__I
*539 ANTENNA__724__I
*540 ANTENNA__767__I
*541 ANTENNA__780__C
*542 ANTENNA__830__A1
*543 ANTENNA__835__A1
*544 ANTENNA__837__A1
*545 ANTENNA__859__CLK
*546 ANTENNA__860__CLK
*547 ANTENNA__861__CLK
*548 ANTENNA__862__CLK
*549 ANTENNA__889__CLK
*550 ANTENNA__890__CLK
*551 ANTENNA__891__CLK
*552 ANTENNA__912__CLK
*553 ANTENNA_clkbuf_0_wb_clk_i_I
*554 ANTENNA_clkbuf_3_0__f_wb_clk_i_I
*555 ANTENNA_clkbuf_3_1__f_wb_clk_i_I
*556 ANTENNA_clkbuf_3_2__f_wb_clk_i_I
*557 ANTENNA_clkbuf_3_3__f_wb_clk_i_I
*558 ANTENNA_clkbuf_3_4__f_wb_clk_i_I
*559 ANTENNA_clkbuf_3_5__f_wb_clk_i_I
*560 ANTENNA_clkbuf_3_6__f_wb_clk_i_I
*561 ANTENNA_clkbuf_3_7__f_wb_clk_i_I
*562 ANTENNA_input1_I
*563 FILLER_0_0_104
*564 FILLER_0_0_128
*565 FILLER_0_0_167
*566 FILLER_0_0_169
*567 FILLER_0_0_2
*568 FILLER_0_0_201
*569 FILLER_0_0_203
*570 FILLER_0_0_240
*571 FILLER_0_0_244
*572 FILLER_0_0_280
*573 FILLER_0_0_284
*574 FILLER_0_0_292
*575 FILLER_0_0_294
*576 FILLER_0_0_36
*577 FILLER_0_0_40
*578 FILLER_0_0_44
*579 FILLER_0_0_49
*580 FILLER_0_0_57
*581 FILLER_0_0_59
*582 FILLER_0_0_64
*583 FILLER_0_0_70
*584 FILLER_0_10_102
*585 FILLER_0_10_104
*586 FILLER_0_10_140
*587 FILLER_0_10_149
*588 FILLER_0_10_153
*589 FILLER_0_10_157
*590 FILLER_0_10_159
*591 FILLER_0_10_173
*592 FILLER_0_10_177
*593 FILLER_0_10_194
*594 FILLER_0_10_2
*595 FILLER_0_10_202
*596 FILLER_0_10_204
*597 FILLER_0_10_234
*598 FILLER_0_10_242
*599 FILLER_0_10_244
*600 FILLER_0_10_261
*601 FILLER_0_10_265
*602 FILLER_0_10_34
*603 FILLER_0_10_4
*604 FILLER_0_10_79
*605 FILLER_0_10_86
*606 FILLER_0_11_10
*607 FILLER_0_11_177
*608 FILLER_0_11_2
*609 FILLER_0_11_208
*610 FILLER_0_11_212
*611 FILLER_0_11_216
*612 FILLER_0_11_218
*613 FILLER_0_11_232
*614 FILLER_0_11_264
*615 FILLER_0_11_266
*616 FILLER_0_11_275
*617 FILLER_0_11_279
*618 FILLER_0_11_282
*619 FILLER_0_11_290
*620 FILLER_0_11_294
*621 FILLER_0_11_40
*622 FILLER_0_11_56
*623 FILLER_0_11_78
*624 FILLER_0_11_87
*625 FILLER_0_11_89
*626 FILLER_0_12_102
*627 FILLER_0_12_104
*628 FILLER_0_12_107
*629 FILLER_0_12_109
*630 FILLER_0_12_116
*631 FILLER_0_12_124
*632 FILLER_0_12_127
*633 FILLER_0_12_135
*634 FILLER_0_12_139
*635 FILLER_0_12_142
*636 FILLER_0_12_146
*637 FILLER_0_12_177
*638 FILLER_0_12_179
*639 FILLER_0_12_18
*640 FILLER_0_12_195
*641 FILLER_0_12_199
*642 FILLER_0_12_2
*643 FILLER_0_12_235
*644 FILLER_0_12_243
*645 FILLER_0_12_255
*646 FILLER_0_12_263
*647 FILLER_0_12_265
*648 FILLER_0_12_52
*649 FILLER_0_12_98
*650 FILLER_0_13_111
*651 FILLER_0_13_119
*652 FILLER_0_13_132
*653 FILLER_0_13_159
*654 FILLER_0_13_163
*655 FILLER_0_13_165
*656 FILLER_0_13_172
*657 FILLER_0_13_176
*658 FILLER_0_13_18
*659 FILLER_0_13_194
*660 FILLER_0_13_196
*661 FILLER_0_13_2
*662 FILLER_0_13_202
*663 FILLER_0_13_206
*664 FILLER_0_13_212
*665 FILLER_0_13_26
*666 FILLER_0_13_278
*667 FILLER_0_13_290
*668 FILLER_0_13_294
*669 FILLER_0_13_50
*670 FILLER_0_13_54
*671 FILLER_0_13_60
*672 FILLER_0_13_68
*673 FILLER_0_13_72
*674 FILLER_0_13_76
*675 FILLER_0_13_95
*676 FILLER_0_14_103
*677 FILLER_0_14_107
*678 FILLER_0_14_111
*679 FILLER_0_14_127
*680 FILLER_0_14_133
*681 FILLER_0_14_153
*682 FILLER_0_14_157
*683 FILLER_0_14_159
*684 FILLER_0_14_206
*685 FILLER_0_14_222
*686 FILLER_0_14_241
*687 FILLER_0_14_255
*688 FILLER_0_14_259
*689 FILLER_0_14_284
*690 FILLER_0_14_292
*691 FILLER_0_14_294
*692 FILLER_0_14_31
*693 FILLER_0_14_43
*694 FILLER_0_14_51
*695 FILLER_0_15_115
*696 FILLER_0_15_117
*697 FILLER_0_15_131
*698 FILLER_0_15_142
*699 FILLER_0_15_146
*700 FILLER_0_15_199
*701 FILLER_0_15_2
*702 FILLER_0_15_207
*703 FILLER_0_15_209
*704 FILLER_0_15_212
*705 FILLER_0_15_216
*706 FILLER_0_15_218
*707 FILLER_0_15_225
*708 FILLER_0_15_229
*709 FILLER_0_15_231
*710 FILLER_0_15_237
*711 FILLER_0_15_279
*712 FILLER_0_15_290
*713 FILLER_0_15_294
*714 FILLER_0_15_34
*715 FILLER_0_15_36
*716 FILLER_0_15_66
*717 FILLER_0_15_72
*718 FILLER_0_15_80
*719 FILLER_0_15_84
*720 FILLER_0_16_107
*721 FILLER_0_16_119
*722 FILLER_0_16_160
*723 FILLER_0_16_168
*724 FILLER_0_16_172
*725 FILLER_0_16_174
*726 FILLER_0_16_177
*727 FILLER_0_16_184
*728 FILLER_0_16_193
*729 FILLER_0_16_195
*730 FILLER_0_16_2
*731 FILLER_0_16_210
*732 FILLER_0_16_226
*733 FILLER_0_16_228
*734 FILLER_0_16_244
*735 FILLER_0_16_261
*736 FILLER_0_16_265
*737 FILLER_0_16_37
*738 FILLER_0_16_41
*739 FILLER_0_16_43
*740 FILLER_0_16_46
*741 FILLER_0_16_62
*742 FILLER_0_16_70
*743 FILLER_0_17_10
*744 FILLER_0_17_104
*745 FILLER_0_17_118
*746 FILLER_0_17_14
*747 FILLER_0_17_2
*748 FILLER_0_17_241
*749 FILLER_0_17_290
*750 FILLER_0_17_294
*751 FILLER_0_17_44
*752 FILLER_0_17_46
*753 FILLER_0_17_57
*754 FILLER_0_17_78
*755 FILLER_0_17_94
*756 FILLER_0_17_99
*757 FILLER_0_18_102
*758 FILLER_0_18_104
*759 FILLER_0_18_107
*760 FILLER_0_18_123
*761 FILLER_0_18_127
*762 FILLER_0_18_137
*763 FILLER_0_18_141
*764 FILLER_0_18_154
*765 FILLER_0_18_160
*766 FILLER_0_18_168
*767 FILLER_0_18_172
*768 FILLER_0_18_174
*769 FILLER_0_18_177
*770 FILLER_0_18_209
*771 FILLER_0_18_217
*772 FILLER_0_18_244
*773 FILLER_0_18_276
*774 FILLER_0_18_292
*775 FILLER_0_18_294
*776 FILLER_0_18_31
*777 FILLER_0_18_37
*778 FILLER_0_18_41
*779 FILLER_0_18_65
*780 FILLER_0_18_90
*781 FILLER_0_18_98
*782 FILLER_0_19_103
*783 FILLER_0_19_150
*784 FILLER_0_19_183
*785 FILLER_0_19_187
*786 FILLER_0_19_189
*787 FILLER_0_19_2
*788 FILLER_0_19_204
*789 FILLER_0_19_208
*790 FILLER_0_19_212
*791 FILLER_0_19_220
*792 FILLER_0_19_282
*793 FILLER_0_19_290
*794 FILLER_0_19_294
*795 FILLER_0_19_34
*796 FILLER_0_1_128
*797 FILLER_0_1_138
*798 FILLER_0_1_142
*799 FILLER_0_1_146
*800 FILLER_0_1_150
*801 FILLER_0_1_152
*802 FILLER_0_1_206
*803 FILLER_0_1_212
*804 FILLER_0_1_216
*805 FILLER_0_1_275
*806 FILLER_0_1_279
*807 FILLER_0_1_290
*808 FILLER_0_1_294
*809 FILLER_0_1_52
*810 FILLER_0_1_78
*811 FILLER_0_1_82
*812 FILLER_0_1_91
*813 FILLER_0_20_104
*814 FILLER_0_20_107
*815 FILLER_0_20_115
*816 FILLER_0_20_119
*817 FILLER_0_20_123
*818 FILLER_0_20_139
*819 FILLER_0_20_141
*820 FILLER_0_20_150
*821 FILLER_0_20_154
*822 FILLER_0_20_170
*823 FILLER_0_20_174
*824 FILLER_0_20_177
*825 FILLER_0_20_181
*826 FILLER_0_20_188
*827 FILLER_0_20_244
*828 FILLER_0_20_247
*829 FILLER_0_20_279
*830 FILLER_0_20_31
*831 FILLER_0_20_37
*832 FILLER_0_20_45
*833 FILLER_0_20_61
*834 FILLER_0_20_79
*835 FILLER_0_20_90
*836 FILLER_0_21_103
*837 FILLER_0_21_129
*838 FILLER_0_21_133
*839 FILLER_0_21_142
*840 FILLER_0_21_160
*841 FILLER_0_21_164
*842 FILLER_0_21_166
*843 FILLER_0_21_2
*844 FILLER_0_21_208
*845 FILLER_0_21_212
*846 FILLER_0_21_245
*847 FILLER_0_21_277
*848 FILLER_0_21_279
*849 FILLER_0_21_282
*850 FILLER_0_21_290
*851 FILLER_0_21_294
*852 FILLER_0_21_40
*853 FILLER_0_21_48
*854 FILLER_0_21_50
*855 FILLER_0_21_63
*856 FILLER_0_22_104
*857 FILLER_0_22_118
*858 FILLER_0_22_126
*859 FILLER_0_22_154
*860 FILLER_0_22_170
*861 FILLER_0_22_174
*862 FILLER_0_22_177
*863 FILLER_0_22_185
*864 FILLER_0_22_189
*865 FILLER_0_22_191
*866 FILLER_0_22_2
*867 FILLER_0_22_241
*868 FILLER_0_22_247
*869 FILLER_0_22_279
*870 FILLER_0_22_33
*871 FILLER_0_22_6
*872 FILLER_0_22_74
*873 FILLER_0_22_93
*874 FILLER_0_22_97
*875 FILLER_0_23_10
*876 FILLER_0_23_130
*877 FILLER_0_23_14
*878 FILLER_0_23_142
*879 FILLER_0_23_144
*880 FILLER_0_23_153
*881 FILLER_0_23_16
*882 FILLER_0_23_164
*883 FILLER_0_23_168
*884 FILLER_0_23_191
*885 FILLER_0_23_2
*886 FILLER_0_23_212
*887 FILLER_0_23_216
*888 FILLER_0_23_218
*889 FILLER_0_23_253
*890 FILLER_0_23_269
*891 FILLER_0_23_277
*892 FILLER_0_23_279
*893 FILLER_0_23_282
*894 FILLER_0_23_290
*895 FILLER_0_23_294
*896 FILLER_0_23_40
*897 FILLER_0_23_56
*898 FILLER_0_23_64
*899 FILLER_0_23_68
*900 FILLER_0_23_72
*901 FILLER_0_23_80
*902 FILLER_0_23_87
*903 FILLER_0_23_95
*904 FILLER_0_24_107
*905 FILLER_0_24_206
*906 FILLER_0_24_210
*907 FILLER_0_24_236
*908 FILLER_0_24_244
*909 FILLER_0_24_247
*910 FILLER_0_24_279
*911 FILLER_0_24_31
*912 FILLER_0_24_45
*913 FILLER_0_24_53
*914 FILLER_0_25_105
*915 FILLER_0_25_107
*916 FILLER_0_25_133
*917 FILLER_0_25_137
*918 FILLER_0_25_139
*919 FILLER_0_25_196
*920 FILLER_0_25_2
*921 FILLER_0_25_257
*922 FILLER_0_25_273
*923 FILLER_0_25_277
*924 FILLER_0_25_279
*925 FILLER_0_25_282
*926 FILLER_0_25_290
*927 FILLER_0_25_294
*928 FILLER_0_25_4
*929 FILLER_0_25_50
*930 FILLER_0_25_58
*931 FILLER_0_25_72
*932 FILLER_0_25_74
*933 FILLER_0_26_150
*934 FILLER_0_26_154
*935 FILLER_0_26_167
*936 FILLER_0_26_171
*937 FILLER_0_26_177
*938 FILLER_0_26_18
*939 FILLER_0_26_2
*940 FILLER_0_26_209
*941 FILLER_0_26_231
*942 FILLER_0_26_239
*943 FILLER_0_26_243
*944 FILLER_0_26_247
*945 FILLER_0_26_26
*946 FILLER_0_26_279
*947 FILLER_0_26_28
*948 FILLER_0_26_37
*949 FILLER_0_26_45
*950 FILLER_0_26_49
*951 FILLER_0_26_79
*952 FILLER_0_26_83
*953 FILLER_0_26_99
*954 FILLER_0_27_110
*955 FILLER_0_27_112
*956 FILLER_0_27_115
*957 FILLER_0_27_117
*958 FILLER_0_27_130
*959 FILLER_0_27_138
*960 FILLER_0_27_142
*961 FILLER_0_27_146
*962 FILLER_0_27_148
*963 FILLER_0_27_161
*964 FILLER_0_27_163
*965 FILLER_0_27_18
*966 FILLER_0_27_2
*967 FILLER_0_27_22
*968 FILLER_0_27_220
*969 FILLER_0_27_251
*970 FILLER_0_27_267
*971 FILLER_0_27_275
*972 FILLER_0_27_279
*973 FILLER_0_27_282
*974 FILLER_0_27_290
*975 FILLER_0_27_294
*976 FILLER_0_27_50
*977 FILLER_0_27_72
*978 FILLER_0_27_80
*979 FILLER_0_27_84
*980 FILLER_0_28_102
*981 FILLER_0_28_104
*982 FILLER_0_28_139
*983 FILLER_0_28_155
*984 FILLER_0_28_172
*985 FILLER_0_28_174
*986 FILLER_0_28_177
*987 FILLER_0_28_179
*988 FILLER_0_28_2
*989 FILLER_0_28_22
*990 FILLER_0_28_234
*991 FILLER_0_28_242
*992 FILLER_0_28_244
*993 FILLER_0_28_247
*994 FILLER_0_28_279
*995 FILLER_0_28_37
*996 FILLER_0_28_45
*997 FILLER_0_28_78
*998 FILLER_0_29_101
*999 FILLER_0_29_142
*1000 FILLER_0_29_146
*1001 FILLER_0_29_202
*1002 FILLER_0_29_220
*1003 FILLER_0_29_252
*1004 FILLER_0_29_268
*1005 FILLER_0_29_276
*1006 FILLER_0_29_282
*1007 FILLER_0_29_290
*1008 FILLER_0_29_294
*1009 FILLER_0_29_31
*1010 FILLER_0_29_62
*1011 FILLER_0_29_72
*1012 FILLER_0_29_74
*1013 FILLER_0_29_79
*1014 FILLER_0_29_87
*1015 FILLER_0_2_104
*1016 FILLER_0_2_148
*1017 FILLER_0_2_177
*1018 FILLER_0_2_187
*1019 FILLER_0_2_189
*1020 FILLER_0_2_198
*1021 FILLER_0_2_2
*1022 FILLER_0_2_237
*1023 FILLER_0_2_255
*1024 FILLER_0_2_257
*1025 FILLER_0_2_37
*1026 FILLER_0_2_39
*1027 FILLER_0_2_4
*1028 FILLER_0_2_81
*1029 FILLER_0_30_103
*1030 FILLER_0_30_107
*1031 FILLER_0_30_111
*1032 FILLER_0_30_177
*1033 FILLER_0_30_241
*1034 FILLER_0_30_247
*1035 FILLER_0_30_279
*1036 FILLER_0_30_37
*1037 FILLER_0_30_81
*1038 FILLER_0_30_89
*1039 FILLER_0_30_93
*1040 FILLER_0_31_107
*1041 FILLER_0_31_139
*1042 FILLER_0_31_142
*1043 FILLER_0_31_158
*1044 FILLER_0_31_174
*1045 FILLER_0_31_18
*1046 FILLER_0_31_2
*1047 FILLER_0_31_206
*1048 FILLER_0_31_212
*1049 FILLER_0_31_276
*1050 FILLER_0_31_282
*1051 FILLER_0_31_290
*1052 FILLER_0_31_294
*1053 FILLER_0_31_36
*1054 FILLER_0_31_68
*1055 FILLER_0_31_72
*1056 FILLER_0_31_76
*1057 FILLER_0_32_102
*1058 FILLER_0_32_104
*1059 FILLER_0_32_107
*1060 FILLER_0_32_171
*1061 FILLER_0_32_177
*1062 FILLER_0_32_2
*1063 FILLER_0_32_241
*1064 FILLER_0_32_247
*1065 FILLER_0_32_279
*1066 FILLER_0_32_34
*1067 FILLER_0_32_37
*1068 FILLER_0_32_53
*1069 FILLER_0_32_90
*1070 FILLER_0_32_98
*1071 FILLER_0_33_136
*1072 FILLER_0_33_142
*1073 FILLER_0_33_2
*1074 FILLER_0_33_206
*1075 FILLER_0_33_212
*1076 FILLER_0_33_276
*1077 FILLER_0_33_282
*1078 FILLER_0_33_290
*1079 FILLER_0_33_294
*1080 FILLER_0_33_66
*1081 FILLER_0_33_72
*1082 FILLER_0_34_101
*1083 FILLER_0_34_107
*1084 FILLER_0_34_171
*1085 FILLER_0_34_177
*1086 FILLER_0_34_2
*1087 FILLER_0_34_241
*1088 FILLER_0_34_247
*1089 FILLER_0_34_279
*1090 FILLER_0_34_34
*1091 FILLER_0_34_37
*1092 FILLER_0_35_136
*1093 FILLER_0_35_142
*1094 FILLER_0_35_2
*1095 FILLER_0_35_206
*1096 FILLER_0_35_212
*1097 FILLER_0_35_276
*1098 FILLER_0_35_282
*1099 FILLER_0_35_290
*1100 FILLER_0_35_294
*1101 FILLER_0_35_66
*1102 FILLER_0_35_72
*1103 FILLER_0_36_104
*1104 FILLER_0_36_138
*1105 FILLER_0_36_172
*1106 FILLER_0_36_2
*1107 FILLER_0_36_206
*1108 FILLER_0_36_240
*1109 FILLER_0_36_274
*1110 FILLER_0_36_290
*1111 FILLER_0_36_294
*1112 FILLER_0_36_36
*1113 FILLER_0_36_70
*1114 FILLER_0_3_10
*1115 FILLER_0_3_108
*1116 FILLER_0_3_120
*1117 FILLER_0_3_124
*1118 FILLER_0_3_138
*1119 FILLER_0_3_150
*1120 FILLER_0_3_163
*1121 FILLER_0_3_171
*1122 FILLER_0_3_195
*1123 FILLER_0_3_2
*1124 FILLER_0_3_21
*1125 FILLER_0_3_212
*1126 FILLER_0_3_239
*1127 FILLER_0_3_249
*1128 FILLER_0_3_259
*1129 FILLER_0_3_276
*1130 FILLER_0_3_290
*1131 FILLER_0_3_294
*1132 FILLER_0_3_31
*1133 FILLER_0_3_45
*1134 FILLER_0_3_51
*1135 FILLER_0_3_72
*1136 FILLER_0_3_88
*1137 FILLER_0_3_92
*1138 FILLER_0_3_94
*1139 FILLER_0_4_120
*1140 FILLER_0_4_122
*1141 FILLER_0_4_160
*1142 FILLER_0_4_168
*1143 FILLER_0_4_172
*1144 FILLER_0_4_174
*1145 FILLER_0_4_177
*1146 FILLER_0_4_179
*1147 FILLER_0_4_18
*1148 FILLER_0_4_2
*1149 FILLER_0_4_226
*1150 FILLER_0_4_242
*1151 FILLER_0_4_244
*1152 FILLER_0_4_255
*1153 FILLER_0_4_26
*1154 FILLER_0_4_293
*1155 FILLER_0_4_30
*1156 FILLER_0_4_50
*1157 FILLER_0_4_54
*1158 FILLER_0_4_71
*1159 FILLER_0_4_93
*1160 FILLER_0_4_97
*1161 FILLER_0_5_109
*1162 FILLER_0_5_194
*1163 FILLER_0_5_2
*1164 FILLER_0_5_201
*1165 FILLER_0_5_209
*1166 FILLER_0_5_212
*1167 FILLER_0_5_227
*1168 FILLER_0_5_242
*1169 FILLER_0_5_246
*1170 FILLER_0_5_259
*1171 FILLER_0_5_263
*1172 FILLER_0_5_265
*1173 FILLER_0_5_290
*1174 FILLER_0_5_294
*1175 FILLER_0_5_41
*1176 FILLER_0_5_45
*1177 FILLER_0_5_54
*1178 FILLER_0_5_80
*1179 FILLER_0_5_87
*1180 FILLER_0_5_97
*1181 FILLER_0_5_99
*1182 FILLER_0_6_162
*1183 FILLER_0_6_170
*1184 FILLER_0_6_174
*1185 FILLER_0_6_177
*1186 FILLER_0_6_189
*1187 FILLER_0_6_191
*1188 FILLER_0_6_2
*1189 FILLER_0_6_233
*1190 FILLER_0_6_242
*1191 FILLER_0_6_244
*1192 FILLER_0_6_247
*1193 FILLER_0_6_251
*1194 FILLER_0_6_253
*1195 FILLER_0_6_27
*1196 FILLER_0_6_33
*1197 FILLER_0_6_57
*1198 FILLER_0_6_6
*1199 FILLER_0_6_61
*1200 FILLER_0_6_8
*1201 FILLER_0_6_80
*1202 FILLER_0_7_2
*1203 FILLER_0_7_209
*1204 FILLER_0_7_212
*1205 FILLER_0_7_220
*1206 FILLER_0_7_227
*1207 FILLER_0_7_25
*1208 FILLER_0_7_275
*1209 FILLER_0_7_279
*1210 FILLER_0_7_29
*1211 FILLER_0_7_290
*1212 FILLER_0_7_294
*1213 FILLER_0_7_40
*1214 FILLER_0_7_52
*1215 FILLER_0_7_54
*1216 FILLER_0_7_6
*1217 FILLER_0_7_63
*1218 FILLER_0_7_67
*1219 FILLER_0_7_69
*1220 FILLER_0_7_8
*1221 FILLER_0_7_82
*1222 FILLER_0_7_86
*1223 FILLER_0_8_107
*1224 FILLER_0_8_168
*1225 FILLER_0_8_172
*1226 FILLER_0_8_174
*1227 FILLER_0_8_177
*1228 FILLER_0_8_187
*1229 FILLER_0_8_2
*1230 FILLER_0_8_26
*1231 FILLER_0_8_34
*1232 FILLER_0_8_45
*1233 FILLER_0_8_6
*1234 FILLER_0_8_61
*1235 FILLER_0_8_75
*1236 FILLER_0_8_93
*1237 FILLER_0_9_10
*1238 FILLER_0_9_125
*1239 FILLER_0_9_150
*1240 FILLER_0_9_180
*1241 FILLER_0_9_184
*1242 FILLER_0_9_186
*1243 FILLER_0_9_189
*1244 FILLER_0_9_2
*1245 FILLER_0_9_205
*1246 FILLER_0_9_209
*1247 FILLER_0_9_212
*1248 FILLER_0_9_222
*1249 FILLER_0_9_226
*1250 FILLER_0_9_25
*1251 FILLER_0_9_288
*1252 FILLER_0_9_29
*1253 FILLER_0_9_292
*1254 FILLER_0_9_294
*1255 FILLER_0_9_35
*1256 FILLER_0_9_51
*1257 FILLER_0_9_55
*1258 FILLER_0_9_91
*1259 FILLER_0_9_95
*1260 PHY_EDGE_ROW_0_Left_37
*1261 PHY_EDGE_ROW_0_Right_0
*1262 PHY_EDGE_ROW_10_Left_47
*1263 PHY_EDGE_ROW_10_Right_10
*1264 PHY_EDGE_ROW_11_Left_48
*1265 PHY_EDGE_ROW_11_Right_11
*1266 PHY_EDGE_ROW_12_Left_49
*1267 PHY_EDGE_ROW_12_Right_12
*1268 PHY_EDGE_ROW_13_Left_50
*1269 PHY_EDGE_ROW_13_Right_13
*1270 PHY_EDGE_ROW_14_Left_51
*1271 PHY_EDGE_ROW_14_Right_14
*1272 PHY_EDGE_ROW_15_Left_52
*1273 PHY_EDGE_ROW_15_Right_15
*1274 PHY_EDGE_ROW_16_Left_53
*1275 PHY_EDGE_ROW_16_Right_16
*1276 PHY_EDGE_ROW_17_Left_54
*1277 PHY_EDGE_ROW_17_Right_17
*1278 PHY_EDGE_ROW_18_Left_55
*1279 PHY_EDGE_ROW_18_Right_18
*1280 PHY_EDGE_ROW_19_Left_56
*1281 PHY_EDGE_ROW_19_Right_19
*1282 PHY_EDGE_ROW_1_Left_38
*1283 PHY_EDGE_ROW_1_Right_1
*1284 PHY_EDGE_ROW_20_Left_57
*1285 PHY_EDGE_ROW_20_Right_20
*1286 PHY_EDGE_ROW_21_Left_58
*1287 PHY_EDGE_ROW_21_Right_21
*1288 PHY_EDGE_ROW_22_Left_59
*1289 PHY_EDGE_ROW_22_Right_22
*1290 PHY_EDGE_ROW_23_Left_60
*1291 PHY_EDGE_ROW_23_Right_23
*1292 PHY_EDGE_ROW_24_Left_61
*1293 PHY_EDGE_ROW_24_Right_24
*1294 PHY_EDGE_ROW_25_Left_62
*1295 PHY_EDGE_ROW_25_Right_25
*1296 PHY_EDGE_ROW_26_Left_63
*1297 PHY_EDGE_ROW_26_Right_26
*1298 PHY_EDGE_ROW_27_Left_64
*1299 PHY_EDGE_ROW_27_Right_27
*1300 PHY_EDGE_ROW_28_Left_65
*1301 PHY_EDGE_ROW_28_Right_28
*1302 PHY_EDGE_ROW_29_Left_66
*1303 PHY_EDGE_ROW_29_Right_29
*1304 PHY_EDGE_ROW_2_Left_39
*1305 PHY_EDGE_ROW_2_Right_2
*1306 PHY_EDGE_ROW_30_Left_67
*1307 PHY_EDGE_ROW_30_Right_30
*1308 PHY_EDGE_ROW_31_Left_68
*1309 PHY_EDGE_ROW_31_Right_31
*1310 PHY_EDGE_ROW_32_Left_69
*1311 PHY_EDGE_ROW_32_Right_32
*1312 PHY_EDGE_ROW_33_Left_70
*1313 PHY_EDGE_ROW_33_Right_33
*1314 PHY_EDGE_ROW_34_Left_71
*1315 PHY_EDGE_ROW_34_Right_34
*1316 PHY_EDGE_ROW_35_Left_72
*1317 PHY_EDGE_ROW_35_Right_35
*1318 PHY_EDGE_ROW_36_Left_73
*1319 PHY_EDGE_ROW_36_Right_36
*1320 PHY_EDGE_ROW_3_Left_40
*1321 PHY_EDGE_ROW_3_Right_3
*1322 PHY_EDGE_ROW_4_Left_41
*1323 PHY_EDGE_ROW_4_Right_4
*1324 PHY_EDGE_ROW_5_Left_42
*1325 PHY_EDGE_ROW_5_Right_5
*1326 PHY_EDGE_ROW_6_Left_43
*1327 PHY_EDGE_ROW_6_Right_6
*1328 PHY_EDGE_ROW_7_Left_44
*1329 PHY_EDGE_ROW_7_Right_7
*1330 PHY_EDGE_ROW_8_Left_45
*1331 PHY_EDGE_ROW_8_Right_8
*1332 PHY_EDGE_ROW_9_Left_46
*1333 PHY_EDGE_ROW_9_Right_9
*1334 TAP_TAPCELL_ROW_0_74
*1335 TAP_TAPCELL_ROW_0_75
*1336 TAP_TAPCELL_ROW_0_76
*1337 TAP_TAPCELL_ROW_0_77
*1338 TAP_TAPCELL_ROW_0_78
*1339 TAP_TAPCELL_ROW_0_79
*1340 TAP_TAPCELL_ROW_0_80
*1341 TAP_TAPCELL_ROW_0_81
*1342 TAP_TAPCELL_ROW_10_118
*1343 TAP_TAPCELL_ROW_10_119
*1344 TAP_TAPCELL_ROW_10_120
*1345 TAP_TAPCELL_ROW_10_121
*1346 TAP_TAPCELL_ROW_11_122
*1347 TAP_TAPCELL_ROW_11_123
*1348 TAP_TAPCELL_ROW_11_124
*1349 TAP_TAPCELL_ROW_11_125
*1350 TAP_TAPCELL_ROW_12_126
*1351 TAP_TAPCELL_ROW_12_127
*1352 TAP_TAPCELL_ROW_12_128
*1353 TAP_TAPCELL_ROW_12_129
*1354 TAP_TAPCELL_ROW_13_130
*1355 TAP_TAPCELL_ROW_13_131
*1356 TAP_TAPCELL_ROW_13_132
*1357 TAP_TAPCELL_ROW_13_133
*1358 TAP_TAPCELL_ROW_14_134
*1359 TAP_TAPCELL_ROW_14_135
*1360 TAP_TAPCELL_ROW_14_136
*1361 TAP_TAPCELL_ROW_14_137
*1362 TAP_TAPCELL_ROW_15_138
*1363 TAP_TAPCELL_ROW_15_139
*1364 TAP_TAPCELL_ROW_15_140
*1365 TAP_TAPCELL_ROW_15_141
*1366 TAP_TAPCELL_ROW_16_142
*1367 TAP_TAPCELL_ROW_16_143
*1368 TAP_TAPCELL_ROW_16_144
*1369 TAP_TAPCELL_ROW_16_145
*1370 TAP_TAPCELL_ROW_17_146
*1371 TAP_TAPCELL_ROW_17_147
*1372 TAP_TAPCELL_ROW_17_148
*1373 TAP_TAPCELL_ROW_17_149
*1374 TAP_TAPCELL_ROW_18_150
*1375 TAP_TAPCELL_ROW_18_151
*1376 TAP_TAPCELL_ROW_18_152
*1377 TAP_TAPCELL_ROW_18_153
*1378 TAP_TAPCELL_ROW_19_154
*1379 TAP_TAPCELL_ROW_19_155
*1380 TAP_TAPCELL_ROW_19_156
*1381 TAP_TAPCELL_ROW_19_157
*1382 TAP_TAPCELL_ROW_1_82
*1383 TAP_TAPCELL_ROW_1_83
*1384 TAP_TAPCELL_ROW_1_84
*1385 TAP_TAPCELL_ROW_1_85
*1386 TAP_TAPCELL_ROW_20_158
*1387 TAP_TAPCELL_ROW_20_159
*1388 TAP_TAPCELL_ROW_20_160
*1389 TAP_TAPCELL_ROW_20_161
*1390 TAP_TAPCELL_ROW_21_162
*1391 TAP_TAPCELL_ROW_21_163
*1392 TAP_TAPCELL_ROW_21_164
*1393 TAP_TAPCELL_ROW_21_165
*1394 TAP_TAPCELL_ROW_22_166
*1395 TAP_TAPCELL_ROW_22_167
*1396 TAP_TAPCELL_ROW_22_168
*1397 TAP_TAPCELL_ROW_22_169
*1398 TAP_TAPCELL_ROW_23_170
*1399 TAP_TAPCELL_ROW_23_171
*1400 TAP_TAPCELL_ROW_23_172
*1401 TAP_TAPCELL_ROW_23_173
*1402 TAP_TAPCELL_ROW_24_174
*1403 TAP_TAPCELL_ROW_24_175
*1404 TAP_TAPCELL_ROW_24_176
*1405 TAP_TAPCELL_ROW_24_177
*1406 TAP_TAPCELL_ROW_25_178
*1407 TAP_TAPCELL_ROW_25_179
*1408 TAP_TAPCELL_ROW_25_180
*1409 TAP_TAPCELL_ROW_25_181
*1410 TAP_TAPCELL_ROW_26_182
*1411 TAP_TAPCELL_ROW_26_183
*1412 TAP_TAPCELL_ROW_26_184
*1413 TAP_TAPCELL_ROW_26_185
*1414 TAP_TAPCELL_ROW_27_186
*1415 TAP_TAPCELL_ROW_27_187
*1416 TAP_TAPCELL_ROW_27_188
*1417 TAP_TAPCELL_ROW_27_189
*1418 TAP_TAPCELL_ROW_28_190
*1419 TAP_TAPCELL_ROW_28_191
*1420 TAP_TAPCELL_ROW_28_192
*1421 TAP_TAPCELL_ROW_28_193
*1422 TAP_TAPCELL_ROW_29_194
*1423 TAP_TAPCELL_ROW_29_195
*1424 TAP_TAPCELL_ROW_29_196
*1425 TAP_TAPCELL_ROW_29_197
*1426 TAP_TAPCELL_ROW_2_86
*1427 TAP_TAPCELL_ROW_2_87
*1428 TAP_TAPCELL_ROW_2_88
*1429 TAP_TAPCELL_ROW_2_89
*1430 TAP_TAPCELL_ROW_30_198
*1431 TAP_TAPCELL_ROW_30_199
*1432 TAP_TAPCELL_ROW_30_200
*1433 TAP_TAPCELL_ROW_30_201
*1434 TAP_TAPCELL_ROW_31_202
*1435 TAP_TAPCELL_ROW_31_203
*1436 TAP_TAPCELL_ROW_31_204
*1437 TAP_TAPCELL_ROW_31_205
*1438 TAP_TAPCELL_ROW_32_206
*1439 TAP_TAPCELL_ROW_32_207
*1440 TAP_TAPCELL_ROW_32_208
*1441 TAP_TAPCELL_ROW_32_209
*1442 TAP_TAPCELL_ROW_33_210
*1443 TAP_TAPCELL_ROW_33_211
*1444 TAP_TAPCELL_ROW_33_212
*1445 TAP_TAPCELL_ROW_33_213
*1446 TAP_TAPCELL_ROW_34_214
*1447 TAP_TAPCELL_ROW_34_215
*1448 TAP_TAPCELL_ROW_34_216
*1449 TAP_TAPCELL_ROW_34_217
*1450 TAP_TAPCELL_ROW_35_218
*1451 TAP_TAPCELL_ROW_35_219
*1452 TAP_TAPCELL_ROW_35_220
*1453 TAP_TAPCELL_ROW_35_221
*1454 TAP_TAPCELL_ROW_36_222
*1455 TAP_TAPCELL_ROW_36_223
*1456 TAP_TAPCELL_ROW_36_224
*1457 TAP_TAPCELL_ROW_36_225
*1458 TAP_TAPCELL_ROW_36_226
*1459 TAP_TAPCELL_ROW_36_227
*1460 TAP_TAPCELL_ROW_36_228
*1461 TAP_TAPCELL_ROW_36_229
*1462 TAP_TAPCELL_ROW_3_90
*1463 TAP_TAPCELL_ROW_3_91
*1464 TAP_TAPCELL_ROW_3_92
*1465 TAP_TAPCELL_ROW_3_93
*1466 TAP_TAPCELL_ROW_4_94
*1467 TAP_TAPCELL_ROW_4_95
*1468 TAP_TAPCELL_ROW_4_96
*1469 TAP_TAPCELL_ROW_4_97
*1470 TAP_TAPCELL_ROW_5_100
*1471 TAP_TAPCELL_ROW_5_101
*1472 TAP_TAPCELL_ROW_5_98
*1473 TAP_TAPCELL_ROW_5_99
*1474 TAP_TAPCELL_ROW_6_102
*1475 TAP_TAPCELL_ROW_6_103
*1476 TAP_TAPCELL_ROW_6_104
*1477 TAP_TAPCELL_ROW_6_105
*1478 TAP_TAPCELL_ROW_7_106
*1479 TAP_TAPCELL_ROW_7_107
*1480 TAP_TAPCELL_ROW_7_108
*1481 TAP_TAPCELL_ROW_7_109
*1482 TAP_TAPCELL_ROW_8_110
*1483 TAP_TAPCELL_ROW_8_111
*1484 TAP_TAPCELL_ROW_8_112
*1485 TAP_TAPCELL_ROW_8_113
*1486 TAP_TAPCELL_ROW_9_114
*1487 TAP_TAPCELL_ROW_9_115
*1488 TAP_TAPCELL_ROW_9_116
*1489 TAP_TAPCELL_ROW_9_117
*1490 _428_
*1491 _429_
*1492 _430_
*1493 _431_
*1494 _432_
*1495 _433_
*1496 _434_
*1497 _435_
*1498 _436_
*1499 _437_
*1500 _438_
*1501 _439_
*1502 _440_
*1503 _441_
*1504 _442_
*1505 _443_
*1506 _444_
*1507 _445_
*1508 _446_
*1509 _447_
*1510 _448_
*1511 _449_
*1512 _450_
*1513 _451_
*1514 _452_
*1515 _453_
*1516 _454_
*1517 _455_
*1518 _456_
*1519 _457_
*1520 _458_
*1521 _459_
*1522 _460_
*1523 _461_
*1524 _462_
*1525 _463_
*1526 _464_
*1527 _465_
*1528 _466_
*1529 _467_
*1530 _468_
*1531 _469_
*1532 _470_
*1533 _471_
*1534 _472_
*1535 _473_
*1536 _474_
*1537 _475_
*1538 _476_
*1539 _477_
*1540 _478_
*1541 _479_
*1542 _480_
*1543 _481_
*1544 _482_
*1545 _483_
*1546 _484_
*1547 _485_
*1548 _486_
*1549 _487_
*1550 _488_
*1551 _489_
*1552 _490_
*1553 _491_
*1554 _492_
*1555 _493_
*1556 _494_
*1557 _495_
*1558 _496_
*1559 _497_
*1560 _498_
*1561 _499_
*1562 _500_
*1563 _501_
*1564 _502_
*1565 _503_
*1566 _504_
*1567 _505_
*1568 _506_
*1569 _507_
*1570 _508_
*1571 _509_
*1572 _510_
*1573 _511_
*1574 _512_
*1575 _513_
*1576 _514_
*1577 _515_
*1578 _516_
*1579 _517_
*1580 _518_
*1581 _519_
*1582 _520_
*1583 _521_
*1584 _522_
*1585 _523_
*1586 _524_
*1587 _525_
*1588 _526_
*1589 _527_
*1590 _528_