*SPEF "ieee 1481-1999"
*DESIGN "hellorld"
*DATE "11:11:11 Fri 11 11, 1111"
*VENDOR "OpenRCX"
*PROGRAM "Parallel Extraction"
*VERSION "1.0"
*DESIGN_FLOW "NAME_SCOPE LOCAL" "PIN_CAP NONE"
*DIVIDER /
*DELIMITER :
*BUS_DELIMITER []
*T_UNIT 1 NS
*C_UNIT 1 PF
*R_UNIT 1 OHM
*L_UNIT 1 HENRY

*NAME_MAP
*1 custom_settings[0]
*2 custom_settings[10]
*3 custom_settings[11]
*4 custom_settings[1]
*5 custom_settings[2]
*6 custom_settings[3]
*7 custom_settings[4]
*8 custom_settings[5]
*9 custom_settings[6]
*10 custom_settings[7]
*11 custom_settings[8]
*12 custom_settings[9]
*13 io_out
*14 rst_n
*17 wb_clk_i
*18 _000_
*19 _001_
*20 _002_
*21 _003_
*22 _004_
*23 _005_
*24 _006_
*25 _007_
*26 _008_
*27 _009_
*28 _010_
*29 _011_
*30 _012_
*31 _013_
*32 _014_
*33 _015_
*34 _016_
*35 _017_
*36 _018_
*37 _019_
*38 _020_
*39 _021_
*40 _022_
*41 _023_
*42 _024_
*43 _025_
*44 _026_
*45 _027_
*46 _028_
*47 _029_
*48 _030_
*49 _031_
*50 _032_
*51 _033_
*52 _034_
*53 _035_
*54 _036_
*55 _037_
*56 _038_
*57 _039_
*58 _040_
*59 _041_
*60 _042_
*61 _043_
*62 _044_
*63 _045_
*64 _046_
*65 _047_
*66 _048_
*67 _049_
*68 _050_
*69 _051_
*70 _052_
*71 _053_
*72 _054_
*73 _055_
*74 _056_
*75 _057_
*76 _058_
*77 _059_
*78 _060_
*79 _061_
*80 _062_
*81 _063_
*82 _064_
*83 _065_
*84 _066_
*85 _067_
*86 _068_
*87 _069_
*88 _070_
*89 _071_
*90 _072_
*91 _073_
*92 _074_
*93 _075_
*94 _076_
*95 _077_
*96 _078_
*97 _079_
*98 _080_
*99 _081_
*100 _082_
*101 _083_
*102 _084_
*103 _085_
*104 _086_
*105 _087_
*106 _088_
*107 _089_
*108 _090_
*109 _091_
*110 _092_
*111 _093_
*112 _094_
*113 _095_
*114 _096_
*115 _097_
*116 _098_
*117 _099_
*118 _100_
*119 _101_
*120 _102_
*121 _103_
*122 _104_
*123 _105_
*124 _106_
*125 _107_
*126 _108_
*127 _109_
*128 _110_
*129 _111_
*130 _112_
*131 _113_
*132 _114_
*133 _115_
*134 _116_
*135 _117_
*136 _118_
*137 _119_
*138 _120_
*139 _121_
*140 _122_
*141 _123_
*142 _124_
*143 _125_
*144 _126_
*145 _127_
*146 _128_
*147 _129_
*148 _130_
*149 _131_
*150 _132_
*151 _133_
*152 _134_
*153 _135_
*154 _136_
*155 _137_
*156 _138_
*157 _139_
*158 _140_
*159 _141_
*160 _142_
*161 _143_
*162 _144_
*163 _145_
*164 _146_
*165 _147_
*166 _148_
*167 _149_
*168 _150_
*169 _151_
*170 _152_
*171 _153_
*172 _154_
*173 _155_
*174 _156_
*175 _157_
*176 _158_
*177 _159_
*178 _160_
*179 _161_
*180 _162_
*181 _163_
*182 _164_
*183 _165_
*184 _166_
*185 _167_
*186 _168_
*187 _169_
*188 _170_
*189 _171_
*190 _172_
*191 _173_
*192 _174_
*193 _175_
*194 _176_
*195 baud_delay\[0\]
*196 baud_delay\[10\]
*197 baud_delay\[11\]
*198 baud_delay\[1\]
*199 baud_delay\[2\]
*200 baud_delay\[3\]
*201 baud_delay\[4\]
*202 baud_delay\[5\]
*203 baud_delay\[6\]
*204 baud_delay\[7\]
*205 baud_delay\[8\]
*206 baud_delay\[9\]
*207 char_at\[0\]
*208 char_at\[1\]
*209 char_at\[2\]
*210 char_at\[3\]
*211 char_at\[4\]
*212 char_at\[5\]
*213 char_at\[6\]
*214 char_pointer\[0\]
*215 char_pointer\[1\]
*216 char_pointer\[2\]
*217 char_pointer\[3\]
*218 clknet_0_wb_clk_i
*219 clknet_2_0__leaf_wb_clk_i
*220 clknet_2_1__leaf_wb_clk_i
*221 clknet_2_2__leaf_wb_clk_i
*222 clknet_2_3__leaf_wb_clk_i
*223 frame_counter\[0\]
*224 frame_counter\[1\]
*225 frame_counter\[2\]
*226 frame_counter\[3\]
*227 net1
*228 net10
*229 net11
*230 net12
*231 net13
*232 net14
*233 net2
*234 net3
*235 net4
*236 net5
*237 net6
*238 net7
*239 net8
*240 net9
*241 uart_frame\[0\]
*242 uart_frame\[1\]
*243 uart_frame\[2\]
*244 uart_frame\[3\]
*245 uart_frame\[4\]
*246 uart_frame\[5\]
*247 uart_frame\[6\]
*248 uart_frame\[7\]
*249 uart_frame\[8\]
*250 uart_frame\[9\]
*251 ANTENNA__286__I
*252 ANTENNA__295__A1
*253 ANTENNA__301__S
*254 ANTENNA__305__A2
*255 ANTENNA_clkbuf_0_wb_clk_i_I
*256 ANTENNA_input10_I
*257 ANTENNA_input11_I
*258 ANTENNA_input12_I
*259 ANTENNA_input13_I
*260 ANTENNA_input1_I
*261 ANTENNA_input2_I
*262 ANTENNA_input3_I
*263 ANTENNA_input4_I
*264 ANTENNA_input5_I
*265 ANTENNA_input6_I
*266 ANTENNA_input7_I
*267 ANTENNA_input8_I
*268 ANTENNA_input9_I
*269 FILLER_0_0_104
*270 FILLER_0_0_138
*271 FILLER_0_0_172
*272 FILLER_0_0_188
*273 FILLER_0_0_2
*274 FILLER_0_0_36
*275 FILLER_0_0_70
*276 FILLER_0_10_101
*277 FILLER_0_10_122
*278 FILLER_0_10_124
*279 FILLER_0_10_2
*280 FILLER_0_10_201
*281 FILLER_0_10_203
*282 FILLER_0_10_34
*283 FILLER_0_10_37
*284 FILLER_0_10_41
*285 FILLER_0_10_93
*286 FILLER_0_11_116
*287 FILLER_0_11_120
*288 FILLER_0_11_137
*289 FILLER_0_11_139
*290 FILLER_0_11_146
*291 FILLER_0_11_150
*292 FILLER_0_11_2
*293 FILLER_0_11_33
*294 FILLER_0_11_37
*295 FILLER_0_11_68
*296 FILLER_0_12_10
*297 FILLER_0_12_102
*298 FILLER_0_12_104
*299 FILLER_0_12_144
*300 FILLER_0_12_152
*301 FILLER_0_12_177
*302 FILLER_0_12_185
*303 FILLER_0_12_199
*304 FILLER_0_12_2
*305 FILLER_0_12_20
*306 FILLER_0_12_28
*307 FILLER_0_12_37
*308 FILLER_0_12_41
*309 FILLER_0_12_48
*310 FILLER_0_12_56
*311 FILLER_0_12_86
*312 FILLER_0_12_94
*313 FILLER_0_13_123
*314 FILLER_0_13_132
*315 FILLER_0_13_137
*316 FILLER_0_13_139
*317 FILLER_0_13_47
*318 FILLER_0_13_63
*319 FILLER_0_13_67
*320 FILLER_0_13_69
*321 FILLER_0_13_78
*322 FILLER_0_13_86
*323 FILLER_0_14_177
*324 FILLER_0_14_2
*325 FILLER_0_14_22
*326 FILLER_0_14_24
*327 FILLER_0_14_33
*328 FILLER_0_14_37
*329 FILLER_0_14_41
*330 FILLER_0_14_54
*331 FILLER_0_14_56
*332 FILLER_0_14_6
*333 FILLER_0_14_65
*334 FILLER_0_14_67
*335 FILLER_0_14_97
*336 FILLER_0_15_100
*337 FILLER_0_15_102
*338 FILLER_0_15_137
*339 FILLER_0_15_139
*340 FILLER_0_15_158
*341 FILLER_0_15_160
*342 FILLER_0_15_2
*343 FILLER_0_15_67
*344 FILLER_0_15_69
*345 FILLER_0_15_72
*346 FILLER_0_15_88
*347 FILLER_0_15_96
*348 FILLER_0_16_103
*349 FILLER_0_16_107
*350 FILLER_0_16_115
*351 FILLER_0_16_160
*352 FILLER_0_16_168
*353 FILLER_0_16_172
*354 FILLER_0_16_174
*355 FILLER_0_16_185
*356 FILLER_0_16_187
*357 FILLER_0_16_2
*358 FILLER_0_16_33
*359 FILLER_0_16_37
*360 FILLER_0_16_46
*361 FILLER_0_16_50
*362 FILLER_0_16_6
*363 FILLER_0_16_81
*364 FILLER_0_16_85
*365 FILLER_0_16_93
*366 FILLER_0_16_99
*367 FILLER_0_17_117
*368 FILLER_0_17_125
*369 FILLER_0_17_129
*370 FILLER_0_17_131
*371 FILLER_0_17_138
*372 FILLER_0_17_18
*373 FILLER_0_17_2
*374 FILLER_0_17_205
*375 FILLER_0_17_26
*376 FILLER_0_17_30
*377 FILLER_0_17_32
*378 FILLER_0_17_49
*379 FILLER_0_17_51
*380 FILLER_0_17_62
*381 FILLER_0_17_66
*382 FILLER_0_17_82
*383 FILLER_0_18_107
*384 FILLER_0_18_111
*385 FILLER_0_18_118
*386 FILLER_0_18_126
*387 FILLER_0_18_128
*388 FILLER_0_18_171
*389 FILLER_0_18_2
*390 FILLER_0_18_205
*391 FILLER_0_18_24
*392 FILLER_0_18_26
*393 FILLER_0_18_32
*394 FILLER_0_18_34
*395 FILLER_0_19_10
*396 FILLER_0_19_112
*397 FILLER_0_19_130
*398 FILLER_0_19_138
*399 FILLER_0_19_14
*400 FILLER_0_19_154
*401 FILLER_0_19_158
*402 FILLER_0_19_16
*403 FILLER_0_19_172
*404 FILLER_0_19_2
*405 FILLER_0_19_203
*406 FILLER_0_19_205
*407 FILLER_0_19_40
*408 FILLER_0_19_56
*409 FILLER_0_19_58
*410 FILLER_0_19_99
*411 FILLER_0_1_136
*412 FILLER_0_1_142
*413 FILLER_0_1_174
*414 FILLER_0_1_190
*415 FILLER_0_1_2
*416 FILLER_0_1_66
*417 FILLER_0_1_72
*418 FILLER_0_20_104
*419 FILLER_0_20_107
*420 FILLER_0_20_109
*421 FILLER_0_20_134
*422 FILLER_0_20_171
*423 FILLER_0_20_177
*424 FILLER_0_20_179
*425 FILLER_0_20_37
*426 FILLER_0_20_53
*427 FILLER_0_20_55
*428 FILLER_0_20_73
*429 FILLER_0_20_92
*430 FILLER_0_21_10
*431 FILLER_0_21_119
*432 FILLER_0_21_126
*433 FILLER_0_21_14
*434 FILLER_0_21_147
*435 FILLER_0_21_155
*436 FILLER_0_21_159
*437 FILLER_0_21_16
*438 FILLER_0_21_172
*439 FILLER_0_21_174
*440 FILLER_0_21_188
*441 FILLER_0_21_190
*442 FILLER_0_21_2
*443 FILLER_0_21_205
*444 FILLER_0_21_46
*445 FILLER_0_21_69
*446 FILLER_0_21_79
*447 FILLER_0_22_102
*448 FILLER_0_22_104
*449 FILLER_0_22_107
*450 FILLER_0_22_123
*451 FILLER_0_22_154
*452 FILLER_0_22_170
*453 FILLER_0_22_174
*454 FILLER_0_22_177
*455 FILLER_0_22_181
*456 FILLER_0_22_2
*457 FILLER_0_22_34
*458 FILLER_0_22_37
*459 FILLER_0_22_53
*460 FILLER_0_22_86
*461 FILLER_0_23_133
*462 FILLER_0_23_137
*463 FILLER_0_23_139
*464 FILLER_0_23_142
*465 FILLER_0_23_18
*466 FILLER_0_23_2
*467 FILLER_0_23_204
*468 FILLER_0_23_26
*469 FILLER_0_23_30
*470 FILLER_0_23_66
*471 FILLER_0_23_72
*472 FILLER_0_23_74
*473 FILLER_0_24_110
*474 FILLER_0_24_126
*475 FILLER_0_24_134
*476 FILLER_0_24_138
*477 FILLER_0_24_154
*478 FILLER_0_24_2
*479 FILLER_0_24_36
*480 FILLER_0_24_70
*481 FILLER_0_24_86
*482 FILLER_0_24_94
*483 FILLER_0_24_98
*484 FILLER_0_2_101
*485 FILLER_0_2_107
*486 FILLER_0_2_171
*487 FILLER_0_2_177
*488 FILLER_0_2_2
*489 FILLER_0_2_205
*490 FILLER_0_2_34
*491 FILLER_0_2_37
*492 FILLER_0_3_10
*493 FILLER_0_3_117
*494 FILLER_0_3_133
*495 FILLER_0_3_137
*496 FILLER_0_3_139
*497 FILLER_0_3_142
*498 FILLER_0_3_158
*499 FILLER_0_3_166
*500 FILLER_0_3_170
*501 FILLER_0_3_177
*502 FILLER_0_3_185
*503 FILLER_0_3_189
*504 FILLER_0_3_2
*505 FILLER_0_3_205
*506 FILLER_0_3_72
*507 FILLER_0_4_107
*508 FILLER_0_4_139
*509 FILLER_0_4_143
*510 FILLER_0_4_174
*511 FILLER_0_4_18
*512 FILLER_0_4_2
*513 FILLER_0_4_22
*514 FILLER_0_4_30
*515 FILLER_0_4_34
*516 FILLER_0_4_37
*517 FILLER_0_4_53
*518 FILLER_0_4_55
*519 FILLER_0_4_62
*520 FILLER_0_4_79
*521 FILLER_0_4_87
*522 FILLER_0_4_97
*523 FILLER_0_5_105
*524 FILLER_0_5_109
*525 FILLER_0_5_12
*526 FILLER_0_5_14
*527 FILLER_0_5_142
*528 FILLER_0_5_146
*529 FILLER_0_5_167
*530 FILLER_0_5_175
*531 FILLER_0_5_184
*532 FILLER_0_5_2
*533 FILLER_0_5_30
*534 FILLER_0_5_34
*535 FILLER_0_5_65
*536 FILLER_0_5_69
*537 FILLER_0_5_72
*538 FILLER_0_5_74
*539 FILLER_0_6_101
*540 FILLER_0_6_115
*541 FILLER_0_6_123
*542 FILLER_0_6_132
*543 FILLER_0_6_148
*544 FILLER_0_6_155
*545 FILLER_0_6_159
*546 FILLER_0_6_187
*547 FILLER_0_6_205
*548 FILLER_0_6_31
*549 FILLER_0_6_52
*550 FILLER_0_6_68
*551 FILLER_0_6_70
*552 FILLER_0_6_79
*553 FILLER_0_6_83
*554 FILLER_0_6_85
*555 FILLER_0_7_139
*556 FILLER_0_7_171
*557 FILLER_0_7_18
*558 FILLER_0_7_186
*559 FILLER_0_7_190
*560 FILLER_0_7_2
*561 FILLER_0_7_203
*562 FILLER_0_7_205
*563 FILLER_0_7_87
*564 FILLER_0_7_95
*565 FILLER_0_7_99
*566 FILLER_0_8_107
*567 FILLER_0_8_115
*568 FILLER_0_8_127
*569 FILLER_0_8_143
*570 FILLER_0_8_147
*571 FILLER_0_8_155
*572 FILLER_0_8_157
*573 FILLER_0_8_31
*574 FILLER_0_8_37
*575 FILLER_0_8_45
*576 FILLER_0_8_47
*577 FILLER_0_8_54
*578 FILLER_0_8_97
*579 FILLER_0_9_113
*580 FILLER_0_9_12
*581 FILLER_0_9_121
*582 FILLER_0_9_139
*583 FILLER_0_9_171
*584 FILLER_0_9_192
*585 FILLER_0_9_2
*586 FILLER_0_9_205
*587 FILLER_0_9_58
*588 FILLER_0_9_66
*589 FILLER_0_9_72
*590 FILLER_0_9_80
*591 FILLER_0_9_97
*592 PHY_EDGE_ROW_0_Left_25
*593 PHY_EDGE_ROW_0_Right_0
*594 PHY_EDGE_ROW_10_Left_35
*595 PHY_EDGE_ROW_10_Right_10
*596 PHY_EDGE_ROW_11_Left_36
*597 PHY_EDGE_ROW_11_Right_11
*598 PHY_EDGE_ROW_12_Left_37
*599 PHY_EDGE_ROW_12_Right_12
*600 PHY_EDGE_ROW_13_Left_38
*601 PHY_EDGE_ROW_13_Right_13
*602 PHY_EDGE_ROW_14_Left_39
*603 PHY_EDGE_ROW_14_Right_14
*604 PHY_EDGE_ROW_15_Left_40
*605 PHY_EDGE_ROW_15_Right_15
*606 PHY_EDGE_ROW_16_Left_41
*607 PHY_EDGE_ROW_16_Right_16
*608 PHY_EDGE_ROW_17_Left_42
*609 PHY_EDGE_ROW_17_Right_17
*610 PHY_EDGE_ROW_18_Left_43
*611 PHY_EDGE_ROW_18_Right_18
*612 PHY_EDGE_ROW_19_Left_44
*613 PHY_EDGE_ROW_19_Right_19
*614 PHY_EDGE_ROW_1_Left_26
*615 PHY_EDGE_ROW_1_Right_1
*616 PHY_EDGE_ROW_20_Left_45
*617 PHY_EDGE_ROW_20_Right_20
*618 PHY_EDGE_ROW_21_Left_46
*619 PHY_EDGE_ROW_21_Right_21
*620 PHY_EDGE_ROW_22_Left_47
*621 PHY_EDGE_ROW_22_Right_22
*622 PHY_EDGE_ROW_23_Left_48
*623 PHY_EDGE_ROW_23_Right_23
*624 PHY_EDGE_ROW_24_Left_49
*625 PHY_EDGE_ROW_24_Right_24
*626 PHY_EDGE_ROW_2_Left_27
*627 PHY_EDGE_ROW_2_Right_2
*628 PHY_EDGE_ROW_3_Left_28
*629 PHY_EDGE_ROW_3_Right_3
*630 PHY_EDGE_ROW_4_Left_29
*631 PHY_EDGE_ROW_4_Right_4
*632 PHY_EDGE_ROW_5_Left_30
*633 PHY_EDGE_ROW_5_Right_5
*634 PHY_EDGE_ROW_6_Left_31
*635 PHY_EDGE_ROW_6_Right_6
*636 PHY_EDGE_ROW_7_Left_32
*637 PHY_EDGE_ROW_7_Right_7
*638 PHY_EDGE_ROW_8_Left_33
*639 PHY_EDGE_ROW_8_Right_8
*640 PHY_EDGE_ROW_9_Left_34
*641 PHY_EDGE_ROW_9_Right_9
*642 TAP_TAPCELL_ROW_0_50
*643 TAP_TAPCELL_ROW_0_51
*644 TAP_TAPCELL_ROW_0_52
*645 TAP_TAPCELL_ROW_0_53
*646 TAP_TAPCELL_ROW_0_54
*647 TAP_TAPCELL_ROW_0_55
*648 TAP_TAPCELL_ROW_10_78
*649 TAP_TAPCELL_ROW_10_79
*650 TAP_TAPCELL_ROW_10_80
*651 TAP_TAPCELL_ROW_11_81
*652 TAP_TAPCELL_ROW_11_82
*653 TAP_TAPCELL_ROW_12_83
*654 TAP_TAPCELL_ROW_12_84
*655 TAP_TAPCELL_ROW_12_85
*656 TAP_TAPCELL_ROW_13_86
*657 TAP_TAPCELL_ROW_13_87
*658 TAP_TAPCELL_ROW_14_88
*659 TAP_TAPCELL_ROW_14_89
*660 TAP_TAPCELL_ROW_14_90
*661 TAP_TAPCELL_ROW_15_91
*662 TAP_TAPCELL_ROW_15_92
*663 TAP_TAPCELL_ROW_16_93
*664 TAP_TAPCELL_ROW_16_94
*665 TAP_TAPCELL_ROW_16_95
*666 TAP_TAPCELL_ROW_17_96
*667 TAP_TAPCELL_ROW_17_97
*668 TAP_TAPCELL_ROW_18_100
*669 TAP_TAPCELL_ROW_18_98
*670 TAP_TAPCELL_ROW_18_99
*671 TAP_TAPCELL_ROW_19_101
*672 TAP_TAPCELL_ROW_19_102
*673 TAP_TAPCELL_ROW_1_56
*674 TAP_TAPCELL_ROW_1_57
*675 TAP_TAPCELL_ROW_20_103
*676 TAP_TAPCELL_ROW_20_104
*677 TAP_TAPCELL_ROW_20_105
*678 TAP_TAPCELL_ROW_21_106
*679 TAP_TAPCELL_ROW_21_107
*680 TAP_TAPCELL_ROW_22_108
*681 TAP_TAPCELL_ROW_22_109
*682 TAP_TAPCELL_ROW_22_110
*683 TAP_TAPCELL_ROW_23_111
*684 TAP_TAPCELL_ROW_23_112
*685 TAP_TAPCELL_ROW_24_113
*686 TAP_TAPCELL_ROW_24_114
*687 TAP_TAPCELL_ROW_24_115
*688 TAP_TAPCELL_ROW_24_116
*689 TAP_TAPCELL_ROW_24_117
*690 TAP_TAPCELL_ROW_24_118
*691 TAP_TAPCELL_ROW_2_58
*692 TAP_TAPCELL_ROW_2_59
*693 TAP_TAPCELL_ROW_2_60
*694 TAP_TAPCELL_ROW_3_61
*695 TAP_TAPCELL_ROW_3_62
*696 TAP_TAPCELL_ROW_4_63
*697 TAP_TAPCELL_ROW_4_64
*698 TAP_TAPCELL_ROW_4_65
*699 TAP_TAPCELL_ROW_5_66
*700 TAP_TAPCELL_ROW_5_67
*701 TAP_TAPCELL_ROW_6_68
*702 TAP_TAPCELL_ROW_6_69
*703 TAP_TAPCELL_ROW_6_70
*704 TAP_TAPCELL_ROW_7_71
*705 TAP_TAPCELL_ROW_7_72
*706 TAP_TAPCELL_ROW_8_73
*707 TAP_TAPCELL_ROW_8_74
*708 TAP_TAPCELL_ROW_8_75
*709 TAP_TAPCELL_ROW_9_76
*710 TAP_TAPCELL_ROW_9_77
*711 _177_
*712 _178_
*713 _179_
*714 _180_
*715 _181_
*716 _182_
*717 _183_
*718 _184_
*719 _185_
*720 _186_
*721 _187_
*722 _188_
*723 _189_
*724 _190_
*725 _191_
*726 _192_
*727 _193_
*728 _194_
*729 _195_
*730 _196_
*731 _197_
*732 _198_
*733 _199_
*734 _200_
*735 _201_
*736 _202_
*737 _203_
*738 _204_
*739 _205_
*740 _206_
*741 _207_
*742 _208_
*743 _209_
*744 _210_
*745 _211_
*746 _212_
*747 _213_
*748 _214_
*749 _215_
*750 _216_
*751 _217_
*752 _218_
*753 _219_
*754 _220_
*755 _221_
*756 _222_
*757 _223_
*758 _224_
*759 _225_
*760 _226_
*761 _227_
*762 _228_
*763 _229_
*764 _230_
*765 _231_
*766 _232_
*767 _233_
*768 _234_
*769 _235_
*770 _236_
*771 _237_
*772 _238_
*773 _239_
*774 _240_
*775 _241_
*776 _242_
*777 _243_
*778 _244_
*779 _245_
*780 _246_
*781 _247_
*782 _248_
*783 _249_
*784 _250_
*785 _251_
*786 _252_
*787 _253_
*788 _254_
*789 _255_
*790 _256_
*791 _257_
*792 _258_
*793 _259_
*794 _260_
*795 _261_
*796 _262_
*797 _263_
*798 _264_
*799 _265_
*800 _266_
*801 _267_
*802 _268_
*803 _269_
*804 _270_
*805 _271_
*806 _272_
*807 _273_
*808 _274_
*809 _275_
*810 _276_
*811 _277_
*812 _278_
*813 _279_
*814 _280_
*815 _281_
*816 _282_
*817 _283_
*818 _284_
*819 _285_
*820 _286_
*821 _287_
*822 _288_
*823 _289_
*824 _290_
*825 _291_
*826 _292_
*827 _293_
*828 _294_
*829 _295_
*830 _296_
*831 _297_
*832 _298_
*833 _299_
*834 _300_
*835 _301_
*836 _302_
*837 _303_
*838 _304_
*839 _305_
*840 _306_
*841 _307_
*842 _308_
*843 _309_
*844 _310_
*845 _311_
*846 _312_
*847 _313_
*848 _314_
*849 _315_
*850 _316_
*851 _317_
*852 _318_
*853 _319_
*854 _320_
*855 _321_
*856 _322_
*857 _323_
*858 _324_
*859 _325_
*860 _326_
*861 _327_
*862 _328_
*863 _329_
*864 _330_
*865 _331_
*866 _332_
*867 _333_
*868 _334_
*869 _335_
*870 _336_
*871 _337_
*872 _338_
*873 _339_
*874 _340_
*875 _341_
*876 _342_
*877 _343_
*878 _344_
*879 _345_
*880 _346_
*881 _347_
*882 _348_
*883 _349_
*884 _350_
*885 _351_
*886 _352_
*887 _353_
*888 _354_
*889 _355_
*890 _356_
*891 _357_
*892 _358_
*893 _359_
*894 _360_
*895 _361_
*896 _362_
*897 _363_
*898 _364_
*899 _365_
*900 _366_
*901 _367_
*902 _368_
*903 _369_
*904 _370_
*905 _371_
*906 _372_
*907 _373_
*908 _374_
*909 _375_
*910 _376_
*911 _377_
*912 _378_
*913 _379_
*914 _380_
*915 _381_
*916 _382_
*917 _383_
*918 _384_
*919 _385_
*920 _386_
*921 _387_
*922 _388_
*923 _389_
*924 _390_
*925 _391_
*926 clkbuf_0_wb_clk_i
*927 clkbuf_2_0__f_wb_clk_i
*928 clkbuf_2_1__f_wb_clk_i
*929 clkbuf_2_2__f_wb_clk_i
*930 clkbuf_2_3__f_wb_clk_i
*931 input1
*932 input10
*933 input11
*934 input12
*935 input13
*936 input2
*937 input3
*938 input4
*939 input5
*940 input6
*941 input7
*942 input8
*943 input9
*944 output14

*PORTS
custom_settings[0] I
custom_settings[10] I
custom_settings[11] I
custom_settings[1] I
custom_settings[2] I
custom_settings[3] I
custom_settings[4] I
custom_settings[5] I
custom_settings[6] I
custom_settings[7] I
custom_settings[8] I
custom_settings[9] I
io_out O
rst_n I
wb_clk_i I

*D_NET *1 0.00163473
*CONN
*P custom_settings[0] I
*I *931:I I *D gf180mcu_fd_sc_mcu7t5v0__clkbuf_1
*I *260:I I *D gf180mcu_fd_sc_mcu7t5v0__antenna
*CAP
1 custom_settings[0] 0.00063509
2 *931:I 0
3 *260:I 0.00018083
4 *1:9 0.00081592
5 *260:I *263:I 0
6 *1:9 *808:A2 2.89427e-06
*RES
1 custom_settings[0] *1:9 9.135 
2 *1:9 *260:I 14.58 
3 *1:9 *931:I 4.5 
*END

*D_NET *2 0.00545241
*CONN
*P custom_settings[10] I
*I *261:I I *D gf180mcu_fd_sc_mcu7t5v0__antenna
*I *936:I I *D gf180mcu_fd_sc_mcu7t5v0__clkbuf_1
*CAP
1 custom_settings[10] 0.000624204
2 *261:I 0.000406322
3 *936:I 8.45372e-05
4 *2:9 0.00111506
5 *261:I *811:A1 0.000147441
6 *261:I *900:D 0.000337889
7 *261:I *900:CLK 0.00037349
8 *936:I *807:A1 0.000307423
9 *936:I *944:I 0.000310002
10 *936:I *3:11 1.86887e-06
11 *2:9 io_out 0.000158295
12 *2:9 *807:A1 0.00147655
13 *2:9 *944:I 0.000109323
*RES
1 custom_settings[10] *2:9 6.885 
2 *2:9 *936:I 10.08 
3 *2:9 *261:I 21.3574 
*END

*D_NET *3 0.00311568
*CONN
*P custom_settings[11] I
*I *937:I I *D gf180mcu_fd_sc_mcu7t5v0__clkbuf_1
*I *262:I I *D gf180mcu_fd_sc_mcu7t5v0__antenna
*CAP
1 custom_settings[11] 0.00147643
2 *937:I 0
3 *262:I 8.0476e-05
4 *3:11 0.0015569
5 *3:11 io_out 0
6 *936:I *3:11 1.86887e-06
*RES
1 custom_settings[11] *3:11 15.885 
2 *3:11 *262:I 5.13 
3 *3:11 *937:I 4.5 
*END

*D_NET *4 0.00112739
*CONN
*P custom_settings[1] I
*I *938:I I *D gf180mcu_fd_sc_mcu7t5v0__clkbuf_1
*I *263:I I *D gf180mcu_fd_sc_mcu7t5v0__antenna
*CAP
1 custom_settings[1] 0.000401466
2 *938:I 2.63011e-05
3 *263:I 0.000125242
4 *4:9 0.000553009
5 *263:I *806:A1 0
6 *263:I *808:A2 2.65444e-06
7 *938:I *808:A2 5.30888e-06
8 *4:9 *808:A2 1.34043e-05
9 *260:I *263:I 0
*RES
1 custom_settings[1] *4:9 6.795 
2 *4:9 *263:I 5.49 
3 *4:9 *938:I 4.77 
*END

*D_NET *5 0.00278698
*CONN
*P custom_settings[2] I
*I *264:I I *D gf180mcu_fd_sc_mcu7t5v0__antenna
*I *939:I I *D gf180mcu_fd_sc_mcu7t5v0__clkbuf_1
*CAP
1 custom_settings[2] 0.000709474
2 *264:I 0.000242252
3 *939:I 0
4 *5:9 0.000951726
5 *264:I *801:A1 3.98088e-05
6 *264:I *808:A1 0
7 *264:I *808:A2 3.89851e-05
8 *264:I *810:A1 1.58709e-05
9 *264:I *812:A1 3.12857e-05
10 *264:I *199:12 0.000116137
11 *5:9 *266:I 0.000156008
12 *5:9 *801:A1 0.000415666
13 *5:9 *805:A1 4.83522e-05
14 *5:9 *806:A2 1.54403e-05
15 *5:9 *810:A1 5.97457e-06
*RES
1 custom_settings[2] *5:9 10.215 
2 *5:9 *939:I 4.5 
3 *5:9 *264:I 15.3 
*END

*D_NET *6 0.00278447
*CONN
*P custom_settings[3] I
*I *940:I I *D gf180mcu_fd_sc_mcu7t5v0__clkbuf_1
*I *265:I I *D gf180mcu_fd_sc_mcu7t5v0__antenna
*CAP
1 custom_settings[3] 0.000554596
2 *940:I 2.19436e-05
3 *265:I 8.0476e-05
4 *6:13 0.000657015
5 *940:I *810:A1 0.000106536
6 *6:13 *266:I 0.000357866
7 *6:13 *810:A1 9.84908e-05
8 *6:13 *199:12 0.00090755
*RES
1 custom_settings[3] *6:13 9.495 
2 *6:13 *265:I 5.13 
3 *6:13 *940:I 4.77 
*END

*D_NET *7 0.00438403
*CONN
*P custom_settings[4] I
*I *941:I I *D gf180mcu_fd_sc_mcu7t5v0__clkbuf_1
*I *266:I I *D gf180mcu_fd_sc_mcu7t5v0__antenna
*CAP
1 custom_settings[4] 0.000715135
2 *941:I 0
3 *266:I 0.000401148
4 *7:11 0.00111628
5 *266:I *810:A1 0.000853515
6 *266:I *199:12 9.85004e-05
7 *7:11 *812:A2 1.51153e-05
8 *7:11 *813:A1 3.3245e-05
9 *7:11 *815:A2 0.000291795
10 *7:11 *199:12 3.93187e-05
11 *7:11 *200:10 0.0003061
12 *5:9 *266:I 0.000156008
13 *6:13 *266:I 0.000357866
*RES
1 custom_settings[4] *7:11 10.125 
2 *7:11 *266:I 18.27 
3 *7:11 *941:I 4.5 
*END

*D_NET *8 0.00587997
*CONN
*P custom_settings[5] I
*I *942:I I *D gf180mcu_fd_sc_mcu7t5v0__clkbuf_1
*I *267:I I *D gf180mcu_fd_sc_mcu7t5v0__antenna
*CAP
1 custom_settings[5] 0.000316796
2 *942:I 0
3 *267:I 0.000742669
4 *8:9 0.00105947
5 *267:I *721:A1 7.81626e-05
6 *267:I *727:A2 0.00105037
7 *267:I *730:A3 0.000460588
8 *267:I *804:A1 0
9 *267:I *809:A1 0.000519059
10 *267:I *810:A1 2.80902e-05
11 *267:I *810:A2 0.000116374
12 *267:I *895:D 0
13 *267:I *895:CLK 0
14 *267:I *128:19 1.78107e-05
15 *267:I *203:12 0.000341589
16 *8:9 *268:I 0.000570481
17 *8:9 *815:A2 0.000578516
*RES
1 custom_settings[5] *8:9 7.695 
2 *8:9 *267:I 22.05 
3 *8:9 *942:I 4.5 
*END

*D_NET *9 0.00244694
*CONN
*P custom_settings[6] I
*I *268:I I *D gf180mcu_fd_sc_mcu7t5v0__antenna
*I *943:I I *D gf180mcu_fd_sc_mcu7t5v0__clkbuf_1
*CAP
1 custom_settings[6] 0.000294794
2 *268:I 0.000395376
3 *943:I 0
4 *9:9 0.00069017
5 *268:I *815:A2 0.000365452
6 *268:I *10:11 1.79237e-05
7 *9:9 *256:I 6.2083e-06
8 *9:9 *815:A2 0.000106536
9 *8:9 *268:I 0.000570481
*RES
1 custom_settings[6] *9:9 6.435 
2 *9:9 *943:I 4.5 
3 *9:9 *268:I 8.64 
*END

*D_NET *10 0.00391128
*CONN
*P custom_settings[7] I
*I *932:I I *D gf180mcu_fd_sc_mcu7t5v0__clkbuf_1
*I *256:I I *D gf180mcu_fd_sc_mcu7t5v0__antenna
*CAP
1 custom_settings[7] 0.000501041
2 *932:I 0
3 *256:I 0.000496078
4 *10:11 0.000997119
5 *256:I *731:A1 6.90662e-05
6 *256:I *802:A1 0.000526758
7 *256:I *804:A1 0.000105869
8 *256:I *815:A2 9.85004e-05
9 *256:I *204:27 0.000174729
10 *10:11 *815:A2 0.000917984
11 *268:I *10:11 1.79237e-05
12 *9:9 *256:I 6.2083e-06
*RES
1 custom_settings[7] *10:11 8.865 
2 *10:11 *256:I 18.18 
3 *10:11 *932:I 4.5 
*END

*D_NET *11 0.0035604
*CONN
*P custom_settings[8] I
*I *257:I I *D gf180mcu_fd_sc_mcu7t5v0__antenna
*I *933:I I *D gf180mcu_fd_sc_mcu7t5v0__clkbuf_1
*CAP
1 custom_settings[8] 0.000459637
2 *257:I 0.000287027
3 *933:I 0
4 *11:9 0.000746664
5 *257:I *815:A1 0.00047198
6 *257:I *12:13 0.000881483
7 *11:9 *815:A1 0.000713611
*RES
1 custom_settings[8] *11:9 8.055 
2 *11:9 *933:I 4.5 
3 *11:9 *257:I 17.1 
*END

*D_NET *12 0.00322059
*CONN
*P custom_settings[9] I
*I *934:I I *D gf180mcu_fd_sc_mcu7t5v0__clkbuf_1
*I *258:I I *D gf180mcu_fd_sc_mcu7t5v0__antenna
*CAP
1 custom_settings[9] 0.000671928
2 *934:I 1.84129e-05
3 *258:I 7.8786e-05
4 *12:13 0.000769127
5 *258:I *743:A3 1.53122e-05
6 *258:I *897:D 0
7 *934:I *743:A3 1.79237e-05
8 *934:I *803:A2 5.30888e-06
9 *934:I *805:A3 3.55118e-05
10 *12:13 *743:A1 9.43296e-05
11 *12:13 *743:A3 0.000188143
12 *12:13 *744:A1 0
13 *12:13 *744:A2 3.58674e-05
14 *12:13 *803:A2 4.34121e-06
15 *12:13 *811:A2 0.000340422
16 *12:13 *196:12 3.61578e-05
17 *12:13 *206:21 2.75385e-05
18 *257:I *12:13 0.000881483
*RES
1 custom_settings[9] *12:13 11.475 
2 *12:13 *258:I 5.13 
3 *12:13 *934:I 4.77 
*END

*D_NET *13 0.00187642
*CONN
*P io_out O
*I *944:Z O *D gf180mcu_fd_sc_mcu7t5v0__buf_8
*CAP
1 io_out 0.000833376
2 *944:Z 0.000833376
3 io_out *944:I 5.13763e-05
4 *2:9 io_out 0.000158295
5 *3:11 io_out 0
*RES
1 *944:Z io_out 19.755 
*END

*D_NET *14 0.00159105
*CONN
*P rst_n I
*I *935:I I *D gf180mcu_fd_sc_mcu7t5v0__clkbuf_1
*I *259:I I *D gf180mcu_fd_sc_mcu7t5v0__antenna
*CAP
1 rst_n 0.000622749
2 *935:I 0.000133609
3 *259:I 3.91657e-05
4 *14:5 0.000795523
5 *259:I *226:18 0
*RES
1 rst_n *14:5 4.545 
2 *14:5 *259:I 4.77 
3 *14:5 *935:I 5.4 
*END

*D_NET *17 0.0135744
*CONN
*P wb_clk_i I
*I *926:I I *D gf180mcu_fd_sc_mcu7t5v0__clkbuf_16
*I *255:I I *D gf180mcu_fd_sc_mcu7t5v0__antenna
*CAP
1 wb_clk_i 0.00381203
2 *926:I 0.000153197
3 *255:I 0
4 *17:21 0.00396523
5 *926:I *785:I 0.000430362
6 *926:I *185:14 2.50459e-05
7 *17:21 *840:A1 0
8 *17:21 *843:A2 1.39839e-05
9 *17:21 *851:B 0.000222029
10 *17:21 *852:A2 0
11 *17:21 *853:A3 0.000286557
12 *17:21 *854:A1 0.00056779
13 *17:21 *854:A2 8.51131e-05
14 *17:21 *861:A1 1.39171e-05
15 *17:21 *865:I 0.000581848
16 *17:21 *867:A2 0
17 *17:21 *868:A2 0
18 *17:21 *870:A1 0
19 *17:21 *870:A2 1.86887e-06
20 *17:21 *872:A1 0.00225308
21 *17:21 *877:I 5.20045e-05
22 *17:21 *901:D 0.000162975
23 *17:21 *915:CLK 7.01651e-05
24 *17:21 *917:D 2.79322e-05
25 *17:21 *921:CLK 0
26 *17:21 *47:6 0.000362613
27 *17:21 *77:16 0.000244116
28 *17:21 *87:8 0.000159228
29 *17:21 *185:14 6.76406e-05
30 *17:21 *220:78 1.56779e-05
*RES
1 wb_clk_i *17:21 37.575 
2 *17:21 *255:I 9 
3 *17:21 *926:I 10.53 
*END

*D_NET *18 0.00344183
*CONN
*I *901:D I *D gf180mcu_fd_sc_mcu7t5v0__dffq_1
*I *854:ZN O *D gf180mcu_fd_sc_mcu7t5v0__aoi21_1
*CAP
1 *901:D 0.00126765
2 *854:ZN 0.00126765
3 *901:D *762:I1 0.000531355
4 *901:D *861:A1 2.01444e-05
5 *901:D *865:I 0.000114344
6 *901:D *867:A2 0
7 *901:D *872:A1 0
8 *901:D *877:I 7.77106e-05
9 *17:21 *901:D 0.000162975
*RES
1 *854:ZN *901:D 27.09 
*END

*D_NET *19 0.000339298
*CONN
*I *902:D I *D gf180mcu_fd_sc_mcu7t5v0__dffq_1
*I *862:Z O *D gf180mcu_fd_sc_mcu7t5v0__clkbuf_1
*CAP
1 *902:D 0.000169649
2 *862:Z 0.000169649
3 *902:D *762:I1 0
4 *902:D *860:A1 0
5 *902:D *875:I 0
*RES
1 *862:Z *902:D 10.08 
*END

*D_NET *20 0.000508147
*CONN
*I *903:D I *D gf180mcu_fd_sc_mcu7t5v0__dffq_1
*I *867:ZN O *D gf180mcu_fd_sc_mcu7t5v0__nor2_1
*CAP
1 *903:D 0.000203668
2 *867:ZN 0.000203668
3 *903:D *867:A1 0.00010081
4 *903:D *904:CLK 0
*RES
1 *867:ZN *903:D 10.71 
*END

*D_NET *21 0.000894419
*CONN
*I *904:D I *D gf180mcu_fd_sc_mcu7t5v0__dffq_1
*I *872:ZN O *D gf180mcu_fd_sc_mcu7t5v0__oai22_1
*CAP
1 *904:D 0.000292052
2 *872:ZN 0.000292052
3 *904:D *867:A2 1.34016e-05
4 *904:D *872:A2 0.000280795
5 *904:D *872:B2 1.61174e-05
*RES
1 *872:ZN *904:D 11.88 
*END

*D_NET *22 0.000270318
*CONN
*I *905:D I *D gf180mcu_fd_sc_mcu7t5v0__dffq_1
*I *875:Z O *D gf180mcu_fd_sc_mcu7t5v0__clkbuf_1
*CAP
1 *905:D 0.000135159
2 *875:Z 0.000135159
3 *905:D *765:I1 0
4 *905:D *219:72 0
*RES
1 *875:Z *905:D 9.81 
*END

*D_NET *23 0.000291698
*CONN
*I *888:D I *D gf180mcu_fd_sc_mcu7t5v0__dffq_1
*I *877:Z O *D gf180mcu_fd_sc_mcu7t5v0__clkbuf_1
*CAP
1 *888:D 0.000136862
2 *877:Z 0.000136862
3 *888:D *921:CLK 1.79733e-05
*RES
1 *877:Z *888:D 9.81 
*END

*D_NET *24 0.00031964
*CONN
*I *889:D I *D gf180mcu_fd_sc_mcu7t5v0__dffq_1
*I *883:ZN O *D gf180mcu_fd_sc_mcu7t5v0__nor2_1
*CAP
1 *889:D 9.59521e-05
2 *883:ZN 9.59521e-05
3 *889:D *117:35 0.000127736
4 *889:D *221:18 0
*RES
1 *883:ZN *889:D 9.81 
*END

*D_NET *25 0.000966962
*CONN
*I *890:D I *D gf180mcu_fd_sc_mcu7t5v0__dffq_1
*I *886:ZN O *D gf180mcu_fd_sc_mcu7t5v0__nor2_1
*CAP
1 *890:D 0.000411838
2 *886:ZN 0.000411838
3 *890:D *886:A1 0
4 *890:D *886:A2 4.1822e-05
5 *890:D *891:CLK 0.000101464
6 *890:D *118:12 0
*RES
1 *886:ZN *890:D 11.97 
*END

*D_NET *26 0.000509157
*CONN
*I *891:D I *D gf180mcu_fd_sc_mcu7t5v0__dffq_1
*I *713:ZN O *D gf180mcu_fd_sc_mcu7t5v0__nor3_1
*CAP
1 *891:D 0.000247832
2 *713:ZN 0.000247832
3 *891:D *713:A1 1.34934e-05
4 *891:D *810:A1 0
*RES
1 *713:ZN *891:D 10.71 
*END

*D_NET *27 0.000664937
*CONN
*I *892:D I *D gf180mcu_fd_sc_mcu7t5v0__dffq_1
*I *717:ZN O *D gf180mcu_fd_sc_mcu7t5v0__nor3_1
*CAP
1 *892:D 8.66851e-05
2 *717:ZN 8.66851e-05
3 *892:D *713:A1 0.000181544
4 *892:D *714:A2 0
5 *892:D *124:12 0.000310024
*RES
1 *717:ZN *892:D 10.08 
*END

*D_NET *28 0.00087641
*CONN
*I *893:D I *D gf180mcu_fd_sc_mcu7t5v0__dffq_1
*I *723:Z O *D gf180mcu_fd_sc_mcu7t5v0__clkbuf_1
*CAP
1 *893:D 0.00025404
2 *723:Z 0.00025404
3 *893:D *722:A3 5.50498e-05
4 *893:D *723:I 0.000234218
5 *893:D *895:CLK 7.90621e-05
6 *893:D *117:12 0
*RES
1 *723:Z *893:D 20.34 
*END

*D_NET *29 0.00033617
*CONN
*I *894:D I *D gf180mcu_fd_sc_mcu7t5v0__dffq_1
*I *726:ZN O *D gf180mcu_fd_sc_mcu7t5v0__nor2_1
*CAP
1 *894:D 0.000150329
2 *726:ZN 0.000150329
3 *894:D *117:24 3.55118e-05
4 *894:D *221:10 0
5 *894:D *221:12 0
*RES
1 *726:ZN *894:D 9.81 
*END

*D_NET *30 0.00196042
*CONN
*I *895:D I *D gf180mcu_fd_sc_mcu7t5v0__dffq_1
*I *729:ZN O *D gf180mcu_fd_sc_mcu7t5v0__nor2_1
*CAP
1 *895:D 0.000424962
2 *729:ZN 0.000424962
3 *895:D *730:A3 0.00013035
4 *895:D *895:CLK 0.000820178
5 *895:D *117:12 0.00015997
6 *895:D *201:10 0
7 *895:D *204:27 0
8 *267:I *895:D 0
*RES
1 *729:ZN *895:D 22.32 
*END

*D_NET *31 0.00284914
*CONN
*I *896:D I *D gf180mcu_fd_sc_mcu7t5v0__dffq_1
*I *733:ZN O *D gf180mcu_fd_sc_mcu7t5v0__nor3_1
*CAP
1 *896:D 0.000652231
2 *733:ZN 0.000652231
3 *896:D *722:A1 0
4 *896:D *722:A2 1.86887e-06
5 *896:D *733:A1 9.04462e-05
6 *896:D *818:A1 0.000174597
7 *896:D *819:A4 0.000135974
8 *896:D *114:10 0.000435522
9 *896:D *114:12 0.00044192
10 *896:D *116:12 0
11 *896:D *116:30 0
12 *896:D *117:12 1.39839e-05
13 *896:D *127:12 0.000250362
*RES
1 *733:ZN *896:D 23.85 
*END

*D_NET *32 0.000622061
*CONN
*I *897:D I *D gf180mcu_fd_sc_mcu7t5v0__dffq_1
*I *736:ZN O *D gf180mcu_fd_sc_mcu7t5v0__nor3_1
*CAP
1 *897:D 0.000230996
2 *736:ZN 0.000230996
3 *897:D *736:A1 3.40532e-05
4 *897:D *743:A3 2.75146e-05
5 *897:D *803:A1 0
6 *897:D *805:A3 9.85004e-05
7 *258:I *897:D 0
*RES
1 *736:ZN *897:D 10.71 
*END

*D_NET *33 0.000284845
*CONN
*I *898:D I *D gf180mcu_fd_sc_mcu7t5v0__dffq_1
*I *740:ZN O *D gf180mcu_fd_sc_mcu7t5v0__nor2_1
*CAP
1 *898:D 0.000103219
2 *740:ZN 0.000103219
3 *898:D *222:54 7.84068e-05
*RES
1 *740:ZN *898:D 9.81 
*END

*D_NET *34 0.00170039
*CONN
*I *899:D I *D gf180mcu_fd_sc_mcu7t5v0__dffq_1
*I *742:ZN O *D gf180mcu_fd_sc_mcu7t5v0__nor2_1
*CAP
1 *899:D 0.000494617
2 *742:ZN 0.000494617
3 *899:D *739:A3 3.01487e-05
4 *899:D *741:A2 0.000578525
5 *899:D *742:A1 7.20436e-05
6 *899:D *742:A2 3.04341e-05
7 *899:D *232:8 0
*RES
1 *742:ZN *899:D 13.23 
*END

*D_NET *35 0.00134527
*CONN
*I *900:D I *D gf180mcu_fd_sc_mcu7t5v0__dffq_1
*I *745:ZN O *D gf180mcu_fd_sc_mcu7t5v0__nor2_1
*CAP
1 *900:D 0.000335543
2 *745:ZN 0.000335543
3 *900:D *744:A2 0
4 *900:D *745:A1 3.55118e-05
5 *900:D *745:A2 8.77402e-05
6 *900:D *900:CLK 0.000213046
7 *261:I *900:D 0.000337889
*RES
1 *745:ZN *900:D 12.24 
*END

*D_NET *36 0.000426034
*CONN
*I *906:D I *D gf180mcu_fd_sc_mcu7t5v0__dffq_1