*SPEF "ieee 1481-1999"
*DESIGN "user_project_wrapper"
*DATE "11:11:11 Fri 11 11, 1111"
*VENDOR "OpenRCX"
*PROGRAM "Parallel Extraction"
*VERSION "1.0"
*DESIGN_FLOW "NAME_SCOPE LOCAL" "PIN_CAP NONE"
*DIVIDER /
*DELIMITER :
*BUS_DELIMITER []
*T_UNIT 1 NS
*C_UNIT 1 PF
*R_UNIT 1 OHM
*L_UNIT 1 HENRY

*NAME_MAP
*1 io_in[0]
*2 io_in[10]
*3 io_in[11]
*4 io_in[12]
*5 io_in[13]
*6 io_in[14]
*7 io_in[15]
*8 io_in[16]
*9 io_in[17]
*10 io_in[18]
*11 io_in[19]
*12 io_in[1]
*13 io_in[20]
*14 io_in[21]
*15 io_in[22]
*16 io_in[23]
*17 io_in[24]
*18 io_in[25]
*19 io_in[26]
*20 io_in[27]
*21 io_in[28]
*22 io_in[29]
*23 io_in[2]
*24 io_in[30]
*25 io_in[31]
*26 io_in[32]
*27 io_in[33]
*28 io_in[34]
*29 io_in[35]
*30 io_in[36]
*31 io_in[37]
*32 io_in[3]
*33 io_in[4]
*34 io_in[5]
*35 io_in[6]
*36 io_in[7]
*37 io_in[8]
*38 io_in[9]
*39 io_oeb[0]
*40 io_oeb[10]
*41 io_oeb[11]
*42 io_oeb[12]
*43 io_oeb[13]
*44 io_oeb[14]
*45 io_oeb[15]
*46 io_oeb[16]
*47 io_oeb[17]
*48 io_oeb[18]
*49 io_oeb[19]
*50 io_oeb[1]
*51 io_oeb[20]
*52 io_oeb[21]
*53 io_oeb[22]
*54 io_oeb[23]
*55 io_oeb[24]
*56 io_oeb[25]
*57 io_oeb[26]
*58 io_oeb[27]
*59 io_oeb[28]
*60 io_oeb[29]
*61 io_oeb[2]
*62 io_oeb[30]
*63 io_oeb[31]
*64 io_oeb[32]
*65 io_oeb[33]
*66 io_oeb[34]
*67 io_oeb[35]
*68 io_oeb[36]
*69 io_oeb[37]
*70 io_oeb[3]
*71 io_oeb[4]
*72 io_oeb[5]
*73 io_oeb[6]
*74 io_oeb[7]
*75 io_oeb[8]
*76 io_oeb[9]
*77 io_out[0]
*78 io_out[10]
*79 io_out[11]
*80 io_out[12]
*81 io_out[13]
*82 io_out[14]
*83 io_out[15]
*84 io_out[16]
*85 io_out[17]
*86 io_out[18]
*87 io_out[19]
*88 io_out[1]
*89 io_out[20]
*90 io_out[21]
*91 io_out[22]
*92 io_out[23]
*93 io_out[24]
*94 io_out[25]
*95 io_out[26]
*96 io_out[27]
*97 io_out[28]
*98 io_out[29]
*99 io_out[2]
*100 io_out[30]
*101 io_out[31]
*102 io_out[32]
*103 io_out[33]
*104 io_out[34]
*105 io_out[35]
*106 io_out[36]
*107 io_out[37]
*108 io_out[3]
*109 io_out[4]
*110 io_out[5]
*111 io_out[6]
*112 io_out[7]
*113 io_out[8]
*114 io_out[9]
*115 la_data_in[0]
*116 la_data_in[10]
*117 la_data_in[11]
*118 la_data_in[12]
*119 la_data_in[13]
*120 la_data_in[14]
*121 la_data_in[15]
*122 la_data_in[16]
*123 la_data_in[17]
*124 la_data_in[18]
*125 la_data_in[19]
*126 la_data_in[1]
*127 la_data_in[20]
*128 la_data_in[21]
*129 la_data_in[22]
*130 la_data_in[23]
*131 la_data_in[24]
*132 la_data_in[25]
*133 la_data_in[26]
*134 la_data_in[27]
*135 la_data_in[28]
*136 la_data_in[29]
*137 la_data_in[2]
*138 la_data_in[30]
*139 la_data_in[31]
*140 la_data_in[32]
*141 la_data_in[33]
*142 la_data_in[34]
*143 la_data_in[35]
*144 la_data_in[36]
*145 la_data_in[37]
*146 la_data_in[38]
*147 la_data_in[39]
*148 la_data_in[3]
*149 la_data_in[40]
*150 la_data_in[41]
*151 la_data_in[42]
*152 la_data_in[43]
*153 la_data_in[44]
*154 la_data_in[45]
*155 la_data_in[46]
*156 la_data_in[47]
*157 la_data_in[48]
*158 la_data_in[49]
*159 la_data_in[4]
*160 la_data_in[50]
*161 la_data_in[51]
*162 la_data_in[52]
*163 la_data_in[53]
*164 la_data_in[54]
*165 la_data_in[55]
*166 la_data_in[56]
*167 la_data_in[57]
*168 la_data_in[58]
*169 la_data_in[59]
*170 la_data_in[5]
*171 la_data_in[60]
*172 la_data_in[61]
*173 la_data_in[62]
*174 la_data_in[63]
*175 la_data_in[6]
*176 la_data_in[7]
*177 la_data_in[8]
*178 la_data_in[9]
*179 la_data_out[0]
*180 la_data_out[10]
*181 la_data_out[11]
*182 la_data_out[12]
*183 la_data_out[13]
*184 la_data_out[14]
*185 la_data_out[15]
*186 la_data_out[16]
*187 la_data_out[17]
*188 la_data_out[18]
*189 la_data_out[19]
*190 la_data_out[1]
*191 la_data_out[20]
*192 la_data_out[21]
*193 la_data_out[22]
*194 la_data_out[23]
*195 la_data_out[24]
*196 la_data_out[25]
*197 la_data_out[26]
*198 la_data_out[27]
*199 la_data_out[28]
*200 la_data_out[29]
*201 la_data_out[2]
*202 la_data_out[30]
*203 la_data_out[31]
*204 la_data_out[32]
*205 la_data_out[33]
*206 la_data_out[34]
*207 la_data_out[35]
*208 la_data_out[36]
*209 la_data_out[37]
*210 la_data_out[38]
*211 la_data_out[39]
*212 la_data_out[3]
*213 la_data_out[40]
*214 la_data_out[41]
*215 la_data_out[42]
*216 la_data_out[43]
*217 la_data_out[44]
*218 la_data_out[45]
*219 la_data_out[46]
*220 la_data_out[47]
*221 la_data_out[48]
*222 la_data_out[49]
*223 la_data_out[4]
*224 la_data_out[50]
*225 la_data_out[51]
*226 la_data_out[52]
*227 la_data_out[53]
*228 la_data_out[54]
*229 la_data_out[55]
*230 la_data_out[56]
*231 la_data_out[57]
*232 la_data_out[58]
*233 la_data_out[59]
*234 la_data_out[5]
*235 la_data_out[60]
*236 la_data_out[61]
*237 la_data_out[62]
*238 la_data_out[63]
*239 la_data_out[6]
*240 la_data_out[7]
*241 la_data_out[8]
*242 la_data_out[9]
*243 la_oenb[0]
*244 la_oenb[10]
*245 la_oenb[11]
*246 la_oenb[12]
*247 la_oenb[13]
*248 la_oenb[14]
*249 la_oenb[15]
*250 la_oenb[16]
*251 la_oenb[17]
*252 la_oenb[18]
*253 la_oenb[19]
*254 la_oenb[1]
*255 la_oenb[20]
*256 la_oenb[21]
*257 la_oenb[22]
*258 la_oenb[23]
*259 la_oenb[24]
*260 la_oenb[25]
*261 la_oenb[26]
*262 la_oenb[27]
*263 la_oenb[28]
*264 la_oenb[29]
*265 la_oenb[2]
*266 la_oenb[30]
*267 la_oenb[31]
*268 la_oenb[32]
*269 la_oenb[33]
*270 la_oenb[34]
*271 la_oenb[35]
*272 la_oenb[36]
*273 la_oenb[37]
*274 la_oenb[38]
*275 la_oenb[39]
*276 la_oenb[3]
*277 la_oenb[40]
*278 la_oenb[41]
*279 la_oenb[42]
*280 la_oenb[43]
*281 la_oenb[44]
*282 la_oenb[45]
*283 la_oenb[46]
*284 la_oenb[47]
*285 la_oenb[48]
*286 la_oenb[49]
*287 la_oenb[4]
*288 la_oenb[50]
*289 la_oenb[51]
*290 la_oenb[52]
*291 la_oenb[53]
*292 la_oenb[54]
*293 la_oenb[55]
*294 la_oenb[56]
*295 la_oenb[57]
*296 la_oenb[58]
*297 la_oenb[59]
*298 la_oenb[5]
*299 la_oenb[60]
*300 la_oenb[61]
*301 la_oenb[62]
*302 la_oenb[63]
*303 la_oenb[6]
*304 la_oenb[7]
*305 la_oenb[8]
*306 la_oenb[9]
*307 user_clock2
*308 user_irq[0]
*309 user_irq[1]
*310 user_irq[2]
*313 wb_clk_i
*314 wb_rst_i
*315 wbs_ack_o
*316 wbs_adr_i[0]
*317 wbs_adr_i[10]
*318 wbs_adr_i[11]
*319 wbs_adr_i[12]
*320 wbs_adr_i[13]
*321 wbs_adr_i[14]
*322 wbs_adr_i[15]
*323 wbs_adr_i[16]
*324 wbs_adr_i[17]
*325 wbs_adr_i[18]
*326 wbs_adr_i[19]
*327 wbs_adr_i[1]
*328 wbs_adr_i[20]
*329 wbs_adr_i[21]
*330 wbs_adr_i[22]
*331 wbs_adr_i[23]
*332 wbs_adr_i[24]
*333 wbs_adr_i[25]
*334 wbs_adr_i[26]
*335 wbs_adr_i[27]
*336 wbs_adr_i[28]
*337 wbs_adr_i[29]
*338 wbs_adr_i[2]
*339 wbs_adr_i[30]
*340 wbs_adr_i[31]
*341 wbs_adr_i[3]
*342 wbs_adr_i[4]
*343 wbs_adr_i[5]
*344 wbs_adr_i[6]
*345 wbs_adr_i[7]
*346 wbs_adr_i[8]
*347 wbs_adr_i[9]
*348 wbs_cyc_i
*349 wbs_dat_i[0]
*350 wbs_dat_i[10]
*351 wbs_dat_i[11]
*352 wbs_dat_i[12]
*353 wbs_dat_i[13]
*354 wbs_dat_i[14]
*355 wbs_dat_i[15]
*356 wbs_dat_i[16]
*357 wbs_dat_i[17]
*358 wbs_dat_i[18]
*359 wbs_dat_i[19]
*360 wbs_dat_i[1]
*361 wbs_dat_i[20]
*362 wbs_dat_i[21]
*363 wbs_dat_i[22]
*364 wbs_dat_i[23]
*365 wbs_dat_i[24]
*366 wbs_dat_i[25]
*367 wbs_dat_i[26]
*368 wbs_dat_i[27]
*369 wbs_dat_i[28]
*370 wbs_dat_i[29]
*371 wbs_dat_i[2]
*372 wbs_dat_i[30]
*373 wbs_dat_i[31]
*374 wbs_dat_i[3]
*375 wbs_dat_i[4]
*376 wbs_dat_i[5]
*377 wbs_dat_i[6]
*378 wbs_dat_i[7]
*379 wbs_dat_i[8]
*380 wbs_dat_i[9]
*381 wbs_dat_o[0]
*382 wbs_dat_o[10]
*383 wbs_dat_o[11]
*384 wbs_dat_o[12]
*385 wbs_dat_o[13]
*386 wbs_dat_o[14]
*387 wbs_dat_o[15]
*388 wbs_dat_o[16]
*389 wbs_dat_o[17]
*390 wbs_dat_o[18]
*391 wbs_dat_o[19]
*392 wbs_dat_o[1]
*393 wbs_dat_o[20]
*394 wbs_dat_o[21]
*395 wbs_dat_o[22]
*396 wbs_dat_o[23]
*397 wbs_dat_o[24]
*398 wbs_dat_o[25]
*399 wbs_dat_o[26]
*400 wbs_dat_o[27]
*401 wbs_dat_o[28]
*402 wbs_dat_o[29]
*403 wbs_dat_o[2]
*404 wbs_dat_o[30]
*405 wbs_dat_o[31]
*406 wbs_dat_o[3]
*407 wbs_dat_o[4]
*408 wbs_dat_o[5]
*409 wbs_dat_o[6]
*410 wbs_dat_o[7]
*411 wbs_dat_o[8]
*412 wbs_dat_o[9]
*413 wbs_sel_i[0]
*414 wbs_sel_i[1]
*415 wbs_sel_i[2]
*416 wbs_sel_i[3]
*417 wbs_stb_i
*418 wbs_we_i
*419 ay8913_do\[0\]
*420 ay8913_do\[10\]
*421 ay8913_do\[11\]
*422 ay8913_do\[12\]
*423 ay8913_do\[13\]
*424 ay8913_do\[14\]
*425 ay8913_do\[15\]
*426 ay8913_do\[16\]
*427 ay8913_do\[17\]
*428 ay8913_do\[18\]
*429 ay8913_do\[19\]
*430 ay8913_do\[1\]
*431 ay8913_do\[20\]
*432 ay8913_do\[21\]
*433 ay8913_do\[22\]
*434 ay8913_do\[23\]
*435 ay8913_do\[24\]
*436 ay8913_do\[25\]
*437 ay8913_do\[26\]
*438 ay8913_do\[27\]
*439 ay8913_do\[2\]
*440 ay8913_do\[3\]
*441 ay8913_do\[4\]
*442 ay8913_do\[5\]
*443 ay8913_do\[6\]
*444 ay8913_do\[7\]
*445 ay8913_do\[8\]
*446 ay8913_do\[9\]
*447 blinker_do\[0\]
*448 blinker_do\[1\]
*449 blinker_do\[2\]
*450 custom_settings\[0\]
*451 custom_settings\[10\]
*452 custom_settings\[11\]
*453 custom_settings\[12\]
*454 custom_settings\[13\]
*455 custom_settings\[14\]
*456 custom_settings\[15\]
*457 custom_settings\[16\]
*458 custom_settings\[17\]
*459 custom_settings\[18\]
*460 custom_settings\[19\]
*461 custom_settings\[1\]
*462 custom_settings\[20\]
*463 custom_settings\[21\]
*464 custom_settings\[22\]
*465 custom_settings\[23\]
*466 custom_settings\[24\]
*467 custom_settings\[25\]
*468 custom_settings\[26\]
*469 custom_settings\[27\]
*470 custom_settings\[28\]
*471 custom_settings\[29\]
*472 custom_settings\[2\]
*473 custom_settings\[30\]
*474 custom_settings\[31\]
*475 custom_settings\[3\]
*476 custom_settings\[4\]
*477 custom_settings\[5\]
*478 custom_settings\[6\]
*479 custom_settings\[7\]
*480 custom_settings\[8\]
*481 custom_settings\[9\]
*482 hellorld_do
*483 mc14500_do\[0\]
*484 mc14500_do\[10\]
*485 mc14500_do\[11\]
*486 mc14500_do\[12\]
*487 mc14500_do\[13\]
*488 mc14500_do\[14\]
*489 mc14500_do\[15\]
*490 mc14500_do\[16\]
*491 mc14500_do\[17\]
*492 mc14500_do\[18\]
*493 mc14500_do\[19\]
*494 mc14500_do\[1\]
*495 mc14500_do\[20\]
*496 mc14500_do\[21\]
*497 mc14500_do\[22\]
*498 mc14500_do\[23\]
*499 mc14500_do\[24\]
*500 mc14500_do\[25\]
*501 mc14500_do\[26\]
*502 mc14500_do\[27\]
*503 mc14500_do\[28\]
*504 mc14500_do\[29\]
*505 mc14500_do\[2\]
*506 mc14500_do\[30\]
*507 mc14500_do\[3\]
*508 mc14500_do\[4\]
*509 mc14500_do\[5\]
*510 mc14500_do\[6\]
*511 mc14500_do\[7\]
*512 mc14500_do\[8\]
*513 mc14500_do\[9\]
*514 mc14500_sram_addr\[0\]
*515 mc14500_sram_addr\[1\]
*516 mc14500_sram_addr\[2\]
*517 mc14500_sram_addr\[3\]
*518 mc14500_sram_addr\[4\]
*519 mc14500_sram_addr\[5\]
*520 mc14500_sram_gwe
*521 mc14500_sram_in\[0\]
*522 mc14500_sram_in\[1\]
*523 mc14500_sram_in\[2\]
*524 mc14500_sram_in\[3\]
*525 mc14500_sram_in\[4\]
*526 mc14500_sram_in\[5\]
*527 mc14500_sram_in\[6\]
*528 mc14500_sram_in\[7\]
*529 qcpu_do\[0\]
*530 qcpu_do\[10\]
*531 qcpu_do\[11\]
*532 qcpu_do\[12\]
*533 qcpu_do\[13\]
*534 qcpu_do\[14\]
*535 qcpu_do\[15\]
*536 qcpu_do\[16\]
*537 qcpu_do\[17\]
*538 qcpu_do\[18\]
*539 qcpu_do\[19\]
*540 qcpu_do\[1\]
*541 qcpu_do\[20\]
*542 qcpu_do\[21\]
*543 qcpu_do\[22\]
*544 qcpu_do\[23\]
*545 qcpu_do\[24\]
*546 qcpu_do\[25\]
*547 qcpu_do\[26\]
*548 qcpu_do\[27\]
*549 qcpu_do\[28\]
*550 qcpu_do\[29\]
*551 qcpu_do\[2\]
*552 qcpu_do\[30\]
*553 qcpu_do\[31\]
*554 qcpu_do\[32\]
*555 qcpu_do\[3\]
*556 qcpu_do\[4\]
*557 qcpu_do\[5\]
*558 qcpu_do\[6\]
*559 qcpu_do\[7\]
*560 qcpu_do\[8\]
*561 qcpu_do\[9\]
*562 qcpu_oeb\[0\]
*563 qcpu_oeb\[10\]
*564 qcpu_oeb\[11\]
*565 qcpu_oeb\[12\]
*566 qcpu_oeb\[13\]
*567 qcpu_oeb\[14\]
*568 qcpu_oeb\[15\]
*569 qcpu_oeb\[16\]
*570 qcpu_oeb\[17\]
*571 qcpu_oeb\[18\]
*572 qcpu_oeb\[19\]
*573 qcpu_oeb\[1\]
*574 qcpu_oeb\[20\]
*575 qcpu_oeb\[21\]
*576 qcpu_oeb\[22\]
*577 qcpu_oeb\[23\]
*578 qcpu_oeb\[24\]
*579 qcpu_oeb\[25\]
*580 qcpu_oeb\[26\]
*581 qcpu_oeb\[27\]
*582 qcpu_oeb\[28\]
*583 qcpu_oeb\[29\]
*584 qcpu_oeb\[2\]
*585 qcpu_oeb\[30\]
*586 qcpu_oeb\[31\]
*587 qcpu_oeb\[32\]
*588 qcpu_oeb\[3\]
*589 qcpu_oeb\[4\]
*590 qcpu_oeb\[5\]
*591 qcpu_oeb\[6\]
*592 qcpu_oeb\[7\]
*593 qcpu_oeb\[8\]
*594 qcpu_oeb\[9\]
*595 qcpu_sram_addr\[0\]
*596 qcpu_sram_addr\[1\]
*597 qcpu_sram_addr\[2\]
*598 qcpu_sram_addr\[3\]
*599 qcpu_sram_addr\[4\]
*600 qcpu_sram_addr\[5\]
*601 qcpu_sram_gwe
*602 qcpu_sram_in\[0\]
*603 qcpu_sram_in\[1\]
*604 qcpu_sram_in\[2\]
*605 qcpu_sram_in\[3\]
*606 qcpu_sram_in\[4\]
*607 qcpu_sram_in\[5\]
*608 qcpu_sram_in\[6\]
*609 qcpu_sram_in\[7\]
*610 qcpu_sram_out\[0\]
*611 qcpu_sram_out\[1\]
*612 qcpu_sram_out\[2\]
*613 qcpu_sram_out\[3\]
*614 qcpu_sram_out\[4\]
*615 qcpu_sram_out\[5\]
*616 qcpu_sram_out\[6\]
*617 qcpu_sram_out\[7\]
*618 rst_ay8913
*619 rst_blinker
*620 rst_hellorld
*621 rst_mc14500
*622 rst_qcpu
*623 rst_sid
*624 rst_sn76489
*625 sid_do\[0\]
*626 sid_do\[10\]
*627 sid_do\[11\]
*628 sid_do\[12\]
*629 sid_do\[13\]
*630 sid_do\[14\]
*631 sid_do\[15\]
*632 sid_do\[16\]
*633 sid_do\[17\]
*634 sid_do\[18\]
*635 sid_do\[19\]
*636 sid_do\[1\]
*637 sid_do\[20\]
*638 sid_do\[2\]
*639 sid_do\[3\]
*640 sid_do\[4\]
*641 sid_do\[5\]
*642 sid_do\[6\]
*643 sid_do\[7\]
*644 sid_do\[8\]
*645 sid_do\[9\]
*646 sid_oeb
*647 sn76489_do\[0\]
*648 sn76489_do\[10\]
*649 sn76489_do\[11\]
*650 sn76489_do\[12\]
*651 sn76489_do\[13\]
*652 sn76489_do\[14\]
*653 sn76489_do\[15\]
*654 sn76489_do\[16\]
*655 sn76489_do\[17\]
*656 sn76489_do\[18\]
*657 sn76489_do\[19\]
*658 sn76489_do\[1\]
*659 sn76489_do\[20\]
*660 sn76489_do\[21\]
*661 sn76489_do\[22\]
*662 sn76489_do\[23\]
*663 sn76489_do\[24\]
*664 sn76489_do\[25\]
*665 sn76489_do\[26\]
*666 sn76489_do\[27\]
*667 sn76489_do\[2\]
*668 sn76489_do\[3\]
*669 sn76489_do\[4\]
*670 sn76489_do\[5\]
*671 sn76489_do\[6\]
*672 sn76489_do\[7\]
*673 sn76489_do\[8\]
*674 sn76489_do\[9\]
*675 avali_logo
*676 ay8913
*677 blinker
*678 hellorld
*679 mc14500
*680 multiplexer
*681 sid
*682 wrapped_qcpu
*683 wrapped_sn76489

*PORTS
io_in[0] I
io_in[10] I
io_in[11] I
io_in[12] I
io_in[13] I
io_in[14] I
io_in[15] I
io_in[16] I
io_in[17] I
io_in[18] I
io_in[19] I
io_in[1] I
io_in[20] I
io_in[21] I
io_in[22] I
io_in[23] I
io_in[24] I
io_in[25] I
io_in[26] I
io_in[27] I
io_in[28] I
io_in[29] I
io_in[2] I
io_in[30] I
io_in[31] I
io_in[32] I
io_in[33] I
io_in[34] I
io_in[35] I
io_in[36] I
io_in[37] I
io_in[3] I
io_in[4] I
io_in[5] I
io_in[6] I
io_in[7] I
io_in[8] I
io_in[9] I
io_oeb[0] O
io_oeb[10] O
io_oeb[11] O
io_oeb[12] O
io_oeb[13] O
io_oeb[14] O
io_oeb[15] O
io_oeb[16] O
io_oeb[17] O
io_oeb[18] O
io_oeb[19] O
io_oeb[1] O
io_oeb[20] O
io_oeb[21] O
io_oeb[22] O
io_oeb[23] O
io_oeb[24] O
io_oeb[25] O
io_oeb[26] O
io_oeb[27] O
io_oeb[28] O
io_oeb[29] O
io_oeb[2] O
io_oeb[30] O
io_oeb[31] O
io_oeb[32] O
io_oeb[33] O
io_oeb[34] O
io_oeb[35] O
io_oeb[36] O
io_oeb[37] O
io_oeb[3] O
io_oeb[4] O
io_oeb[5] O
io_oeb[6] O
io_oeb[7] O
io_oeb[8] O
io_oeb[9] O
io_out[0] O
io_out[10] O
io_out[11] O
io_out[12] O
io_out[13] O
io_out[14] O
io_out[15] O
io_out[16] O
io_out[17] O
io_out[18] O
io_out[19] O
io_out[1] O
io_out[20] O
io_out[21] O
io_out[22] O
io_out[23] O
io_out[24] O
io_out[25] O
io_out[26] O
io_out[27] O
io_out[28] O
io_out[29] O
io_out[2] O
io_out[30] O
io_out[31] O
io_out[32] O
io_out[33] O
io_out[34] O
io_out[35] O
io_out[36] O
io_out[37] O
io_out[3] O
io_out[4] O
io_out[5] O
io_out[6] O
io_out[7] O
io_out[8] O
io_out[9] O
la_data_in[0] I
la_data_in[10] I
la_data_in[11] I
la_data_in[12] I
la_data_in[13] I
la_data_in[14] I
la_data_in[15] I
la_data_in[16] I
la_data_in[17] I
la_data_in[18] I
la_data_in[19] I
la_data_in[1] I
la_data_in[20] I
la_data_in[21] I
la_data_in[22] I
la_data_in[23] I
la_data_in[24] I
la_data_in[25] I
la_data_in[26] I
la_data_in[27] I
la_data_in[28] I
la_data_in[29] I
la_data_in[2] I
la_data_in[30] I
la_data_in[31] I
la_data_in[32] I
la_data_in[33] I
la_data_in[34] I
la_data_in[35] I
la_data_in[36] I
la_data_in[37] I
la_data_in[38] I
la_data_in[39] I
la_data_in[3] I
la_data_in[40] I
la_data_in[41] I
la_data_in[42] I
la_data_in[43] I
la_data_in[44] I
la_data_in[45] I
la_data_in[46] I
la_data_in[47] I
la_data_in[48] I
la_data_in[49] I
la_data_in[4] I
la_data_in[50] I
la_data_in[51] I
la_data_in[52] I
la_data_in[53] I
la_data_in[54] I
la_data_in[55] I
la_data_in[56] I
la_data_in[57] I
la_data_in[58] I
la_data_in[59] I
la_data_in[5] I
la_data_in[60] I
la_data_in[61] I
la_data_in[62] I
la_data_in[63] I
la_data_in[6] I
la_data_in[7] I
la_data_in[8] I
la_data_in[9] I
la_data_out[0] O
la_data_out[10] O
la_data_out[11] O
la_data_out[12] O
la_data_out[13] O
la_data_out[14] O
la_data_out[15] O
la_data_out[16] O
la_data_out[17] O
la_data_out[18] O
la_data_out[19] O
la_data_out[1] O
la_data_out[20] O
la_data_out[21] O
la_data_out[22] O
la_data_out[23] O
la_data_out[24] O
la_data_out[25] O
la_data_out[26] O
la_data_out[27] O
la_data_out[28] O
la_data_out[29] O
la_data_out[2] O
la_data_out[30] O
la_data_out[31] O
la_data_out[32] O
la_data_out[33] O
la_data_out[34] O
la_data_out[35] O
la_data_out[36] O
la_data_out[37] O
la_data_out[38] O
la_data_out[39] O
la_data_out[3] O
la_data_out[40] O
la_data_out[41] O
la_data_out[42] O
la_data_out[43] O
la_data_out[44] O
la_data_out[45] O
la_data_out[46] O
la_data_out[47] O
la_data_out[48] O
la_data_out[49] O
la_data_out[4] O
la_data_out[50] O
la_data_out[51] O
la_data_out[52] O
la_data_out[53] O
la_data_out[54] O
la_data_out[55] O
la_data_out[56] O
la_data_out[57] O
la_data_out[58] O
la_data_out[59] O
la_data_out[5] O
la_data_out[60] O
la_data_out[61] O
la_data_out[62] O
la_data_out[63] O
la_data_out[6] O
la_data_out[7] O
la_data_out[8] O
la_data_out[9] O
la_oenb[0] I
la_oenb[10] I
la_oenb[11] I
la_oenb[12] I
la_oenb[13] I
la_oenb[14] I
la_oenb[15] I
la_oenb[16] I
la_oenb[17] I
la_oenb[18] I
la_oenb[19] I
la_oenb[1] I
la_oenb[20] I
la_oenb[21] I
la_oenb[22] I
la_oenb[23] I
la_oenb[24] I
la_oenb[25] I
la_oenb[26] I
la_oenb[27] I
la_oenb[28] I
la_oenb[29] I
la_oenb[2] I
la_oenb[30] I
la_oenb[31] I
la_oenb[32] I
la_oenb[33] I
la_oenb[34] I
la_oenb[35] I
la_oenb[36] I
la_oenb[37] I
la_oenb[38] I
la_oenb[39] I
la_oenb[3] I
la_oenb[40] I
la_oenb[41] I
la_oenb[42] I
la_oenb[43] I
la_oenb[44] I
la_oenb[45] I
la_oenb[46] I
la_oenb[47] I
la_oenb[48] I
la_oenb[49] I
la_oenb[4] I
la_oenb[50] I
la_oenb[51] I
la_oenb[52] I
la_oenb[53] I
la_oenb[54] I
la_oenb[55] I
la_oenb[56] I
la_oenb[57] I
la_oenb[58] I
la_oenb[59] I
la_oenb[5] I
la_oenb[60] I
la_oenb[61] I
la_oenb[62] I
la_oenb[63] I
la_oenb[6] I
la_oenb[7] I
la_oenb[8] I
la_oenb[9] I
user_clock2 I
user_irq[0] O
user_irq[1] O
user_irq[2] O
wb_clk_i I
wb_rst_i I
wbs_ack_o O
wbs_adr_i[0] I
wbs_adr_i[10] I
wbs_adr_i[11] I
wbs_adr_i[12] I
wbs_adr_i[13] I
wbs_adr_i[14] I
wbs_adr_i[15] I
wbs_adr_i[16] I
wbs_adr_i[17] I
wbs_adr_i[18] I
wbs_adr_i[19] I
wbs_adr_i[1] I
wbs_adr_i[20] I
wbs_adr_i[21] I
wbs_adr_i[22] I
wbs_adr_i[23] I
wbs_adr_i[24] I
wbs_adr_i[25] I
wbs_adr_i[26] I
wbs_adr_i[27] I
wbs_adr_i[28] I
wbs_adr_i[29] I
wbs_adr_i[2] I
wbs_adr_i[30] I
wbs_adr_i[31] I
wbs_adr_i[3] I
wbs_adr_i[4] I
wbs_adr_i[5] I
wbs_adr_i[6] I
wbs_adr_i[7] I
wbs_adr_i[8] I
wbs_adr_i[9] I
wbs_cyc_i I
wbs_dat_i[0] I
wbs_dat_i[10] I
wbs_dat_i[11] I
wbs_dat_i[12] I
wbs_dat_i[13] I
wbs_dat_i[14] I
wbs_dat_i[15] I
wbs_dat_i[16] I
wbs_dat_i[17] I
wbs_dat_i[18] I
wbs_dat_i[19] I
wbs_dat_i[1] I
wbs_dat_i[20] I
wbs_dat_i[21] I
wbs_dat_i[22] I
wbs_dat_i[23] I
wbs_dat_i[24] I
wbs_dat_i[25] I
wbs_dat_i[26] I
wbs_dat_i[27] I
wbs_dat_i[28] I
wbs_dat_i[29] I
wbs_dat_i[2] I
wbs_dat_i[30] I
wbs_dat_i[31] I
wbs_dat_i[3] I
wbs_dat_i[4] I
wbs_dat_i[5] I
wbs_dat_i[6] I
wbs_dat_i[7] I
wbs_dat_i[8] I
wbs_dat_i[9] I
wbs_dat_o[0] O
wbs_dat_o[10] O
wbs_dat_o[11] O
wbs_dat_o[12] O
wbs_dat_o[13] O
wbs_dat_o[14] O
wbs_dat_o[15] O
wbs_dat_o[16] O
wbs_dat_o[17] O
wbs_dat_o[18] O
wbs_dat_o[19] O
wbs_dat_o[1] O
wbs_dat_o[20] O
wbs_dat_o[21] O
wbs_dat_o[22] O
wbs_dat_o[23] O
wbs_dat_o[24] O
wbs_dat_o[25] O
wbs_dat_o[26] O
wbs_dat_o[27] O
wbs_dat_o[28] O
wbs_dat_o[29] O
wbs_dat_o[2] O
wbs_dat_o[30] O
wbs_dat_o[31] O
wbs_dat_o[3] O
wbs_dat_o[4] O
wbs_dat_o[5] O
wbs_dat_o[6] O
wbs_dat_o[7] O
wbs_dat_o[8] O
wbs_dat_o[9] O
wbs_sel_i[0] I
wbs_sel_i[1] I
wbs_sel_i[2] I
wbs_sel_i[3] I
wbs_stb_i I
wbs_we_i I

*D_NET *1 0.509804
*CONN
*P io_in[0] I
*I *680:io_in[0] I *D multiplexer
*CAP
1 io_in[0] 0.00547296
2 *680:io_in[0] 0.00205343
3 *1:13 0.00500815
4 *1:11 0.00295472
5 *1:9 0.0790617
6 *1:7 0.0845346
7 *680:io_in[0] *680:io_in[1] 0
8 *1:13 *12:13 0.000451698
9 *1:13 *32:13 0.203954
10 *1:13 *308:9 0.0688046
11 *1:13 *430:17 0.0575086
*RES
1 io_in[0] *1:7 47.925 
2 *1:7 *1:9 604.71 
3 *1:9 *1:11 4.5 
4 *1:11 *1:13 513.27 
5 *1:13 *680:io_in[0] 16.425 
*END

*D_NET *2 0.948261
*CONN
*P io_in[10] I
*I *680:io_in[10] I *D multiplexer
*I *676:io_in_1[5] I *D wrapped_ay8913
*I *679:io_in[5] I *D wrapped_mc14500
*I *681:io_in[5] I *D wrapped_sid
*I *683:io_in_1[5] I *D wrapped_sn76489
*I *682:io_in[5] I *D wrapped_qcpu
*CAP
1 io_in[10] 0.0153607
2 *680:io_in[10] 0.000941962
3 *676:io_in_1[5] 0.00176502
4 *679:io_in[5] 0.00067479
5 *681:io_in[5] 0.00109657
6 *683:io_in_1[5] 0.000117181
7 *682:io_in[5] 0.000496332
8 *2:109 0.0131745
9 *2:107 0.0114095
10 *2:105 0.0218614
11 *2:103 0.0218614
12 *2:101 0.00314557
13 *2:99 0.00425856
14 *2:95 0.0175647
15 *2:93 0.0173937
16 *2:71 0.0170563
17 *2:69 0.0159597
18 *2:67 0.00104435
19 *2:65 0.00104435
20 *2:55 0.00689129
21 *2:53 0.00677411
22 *2:51 0.00830945
23 *2:49 0.00850401
24 *2:37 0.0113334
25 *2:35 0.0106425
26 *2:33 0.00047356
27 *2:31 0.00317871
28 *2:19 0.020809
29 *2:17 0.0178227
30 *2:11 0.00562057
31 *2:5 0.0205877
32 *676:io_in_1[5] *38:105 0
33 *676:io_in_1[5] *438:17 0
34 *680:io_in[10] *680:io_in[11] 0
35 *680:io_in[10] *680:io_in[9] 0
36 *680:io_in[10] *3:27 0
37 *681:io_in[5] *681:io_in[4] 0.000539448
38 *681:io_in[5] *681:io_in[6] 0.00923658
39 *681:io_in[5] *681:io_in[7] 0.00903691
40 *2:11 *3:21 0
41 *2:17 *3:21 0.000165676
42 *2:17 *3:23 9.0531e-06
43 *2:17 *3:53 9.04462e-05
44 *2:17 *23:13 0.000203054
45 *2:17 *38:85 0
46 *2:17 *88:9 0.00160391
47 *2:19 *3:53 0.0982326
48 *2:19 *36:51 0.000158023
49 *2:19 *36:53 0.000513302
50 *2:19 *621:17 0.00145215
51 *2:31 *679:io_in[4] 0
52 *2:31 *3:67 0.000320399
53 *2:31 *30:57 0.0113535
54 *2:31 *36:53 0.00044582
55 *2:33 *35:23 0.0038123
56 *2:33 *550:9 0.027493
57 *2:33 *610:13 0.019227
58 *2:37 *518:13 0.000923589
59 *2:49 *4:87 0.0129614
60 *2:49 *16:51 0.0129614
61 *2:51 *37:47 0.0173862
62 *2:67 *3:107 0.0224517
63 *2:67 *34:106 0
64 *2:67 *38:57 0.0194057
65 *2:71 *37:67 0
66 *2:71 *38:61 0.09402
67 *2:71 *372:9 0
68 *2:95 *3:23 0.164296
69 *2:95 *4:15 0
70 *2:95 *6:37 0.0164868
71 *2:95 *9:13 0.0014058
72 *2:95 *10:33 0.0010121
73 *2:95 *444:22 0.0114461
74 *2:95 *624:9 0.0144836
75 *2:99 *3:23 0.000850047
76 *2:99 *10:33 0.00241209
77 *2:99 *31:71 0
78 *2:101 *10:33 0.00262547
79 *2:101 *31:71 0
80 *2:101 *38:101 0.062237
81 *2:101 *420:22 0.00737428
82 *2:101 *444:22 0.0121124
83 *2:101 *446:18 0.000342642
*RES
1 io_in[10] *2:5 121.725 
2 *2:5 *2:11 47.43 
3 *2:11 *2:17 9.72 
4 *2:17 *2:19 255.69 
5 *2:19 *2:31 49.59 
6 *2:31 *2:33 69.21 
7 *2:33 *2:35 4.5 
8 *2:35 *2:37 76.23 
9 *2:37 *682:io_in[5] 3.105 
10 *2:37 *2:49 41.67 
11 *2:49 *2:51 102.33 
12 *2:51 *2:53 4.5 
13 *2:53 *2:55 52.47 
14 *2:55 *683:io_in_1[5] 0.675 
15 *2:55 *2:65 4.5 
16 *2:65 *2:67 60.39 
17 *2:67 *2:69 4.5 
18 *2:69 *2:71 236.43 
19 *2:71 *681:io_in[5] 40.995 
20 *2:19 *679:io_in[5] 8.685 
21 *2:17 *2:93 4.5 
22 *2:93 *2:95 410.58 
23 *2:95 *2:99 6.39 
24 *2:99 *2:101 157.41 
25 *2:101 *2:103 4.5 
26 *2:103 *2:105 164.97 
27 *2:105 *2:107 4.5 
28 *2:107 *2:109 90.63 
29 *2:109 *676:io_in_1[5] 21.555 
30 *2:99 *680:io_in[10] 9.405 
*END

*D_NET *3 0.964684
*CONN
*P io_in[11] I
*I *681:io_in[6] I *D wrapped_sid
*I *683:io_in_1[6] I *D wrapped_sn76489
*I *682:io_in[6] I *D wrapped_qcpu
*I *679:io_in[6] I *D wrapped_mc14500
*I *676:io_in_1[6] I *D wrapped_ay8913
*I *680:io_in[11] I *D multiplexer
*CAP
1 io_in[11] 0.00186132
2 *681:io_in[6] 0.00137698
3 *683:io_in_1[6] 0.000115379
4 *682:io_in[6] 0.000456922
5 *679:io_in[6] 0.000190907
6 *676:io_in_1[6] 0.0115852
7 *680:io_in[11] 0.000196519
8 *3:111 0.011403
9 *3:109 0.010026
10 *3:107 0.00526123
11 *3:105 0.00526123
12 *3:95 0.00302063
13 *3:91 0.0150972
14 *3:89 0.0121919
15 *3:87 0.00062742
16 *3:85 0.00062742
17 *3:75 0.010549
18 *3:73 0.0100921
19 *3:71 0.003557
20 *3:69 0.003557
21 *3:67 0.00336708
22 *3:57 0.00398088
23 *3:53 0.00117505
24 *3:51 0.000752156
25 *3:43 0.0115852
26 *3:41 0.020837
27 *3:39 0.020837
28 *3:37 0.00823974
29 *3:35 0.00823974
30 *3:27 0.00101363
31 *3:23 0.010162
32 *3:21 0.0111197
33 *3:13 0.0119234
34 *3:11 0.0101487
35 *3:9 0.0121467
36 *3:7 0.014008
37 *680:io_in[11] *680:io_in[12] 0
38 *681:io_in[6] *681:io_in[4] 0.00739723
39 *681:io_in[6] *681:io_in[7] 0.00082671
40 *681:io_in[6] *336:13 0.000269263
41 *3:13 *33:13 0
42 *3:13 *108:9 0.00869742
43 *3:21 *4:13 0
44 *3:21 *8:5 1.86887e-06
45 *3:21 *38:85 0
46 *3:23 *5:25 0.0162871
47 *3:23 *9:31 0.0377946
48 *3:23 *23:13 0.000877194
49 *3:23 *31:71 0.000288202
50 *3:23 *88:9 8.765e-05
51 *3:23 *520:13 0.00746513
52 *3:27 *4:19 0
53 *3:37 *4:29 0.00597606
54 *3:37 *29:157 0.00576993
55 *3:37 *101:9 0.065307
56 *3:53 *4:51 0.0960523
57 *3:53 *36:51 0.00076224
58 *3:53 *38:85 3.86038e-05
59 *3:53 *621:17 0.000647734
60 *3:67 *30:57 0.014021
61 *3:71 *9:19 0.0050907
62 *3:71 *548:9 0.0265437
63 *3:87 *4:87 0.00125887
64 *3:87 *11:77 0.0257158
65 *3:87 *16:51 0.000429266
66 *3:87 *36:69 0.000755761
67 *3:87 *36:71 0.0200947
68 *3:91 *460:9 0.00479312
69 *3:107 *34:106 0
70 *3:111 *681:io_in[0] 0.000375166
71 *3:111 *35:69 0.0155848
72 *3:111 *36:95 0.0432319
73 *680:io_in[10] *680:io_in[11] 0
74 *680:io_in[10] *3:27 0
75 *681:io_in[5] *681:io_in[6] 0.00923658
76 *2:11 *3:21 0
77 *2:17 *3:21 0.000165676
78 *2:17 *3:23 9.0531e-06
79 *2:17 *3:53 9.04462e-05
80 *2:19 *3:53 0.0982326
81 *2:31 *3:67 0.000320399
82 *2:67 *3:107 0.0224517
83 *2:95 *3:23 0.164296
84 *2:99 *3:23 0.000850047
*RES
1 io_in[11] *3:7 17.865 
2 *3:7 *3:9 92.79 
3 *3:9 *3:11 4.5 
4 *3:11 *3:13 109.89 
5 *3:13 *3:21 21.78 
6 *3:21 *3:23 415.35 
7 *3:23 *3:27 8.91 
8 *3:27 *680:io_in[11] 0.945 
9 *3:27 *3:35 4.5 
10 *3:35 *3:37 164.25 
11 *3:37 *3:39 4.5 
12 *3:39 *3:41 157.41 
13 *3:41 *3:43 4.5 
14 *3:43 *676:io_in_1[6] 91.845 
15 *3:21 *3:51 4.5 
16 *3:51 *3:53 251.55 
17 *3:53 *3:57 7.47 
18 *3:57 *679:io_in[6] 1.485 
19 *3:57 *3:67 47.79 
20 *3:67 *3:69 4.5 
21 *3:69 *3:71 66.33 
22 *3:71 *3:73 4.5 
23 *3:73 *3:75 71.37 
24 *3:75 *682:io_in[6] 3.015 
25 *3:75 *3:85 4.5 
26 *3:85 *3:87 64.89 
27 *3:87 *3:89 4.5 
28 *3:89 *3:91 90.99 
29 *3:91 *3:95 27.45 
30 *3:95 *683:io_in_1[6] 0.855 
31 *3:95 *3:105 4.5 
32 *3:105 *3:107 68.13 
33 *3:107 *3:109 4.5 
34 *3:109 *3:111 236.07 
35 *3:111 *681:io_in[6] 42.795 
*END

*D_NET *4 0.825641
*CONN
*P io_in[12] I
*I *681:io_in[7] I *D wrapped_sid
*I *683:io_in_1[7] I *D wrapped_sn76489
*I *682:io_in[7] I *D wrapped_qcpu
*I *679:io_in[7] I *D wrapped_mc14500
*I *676:io_in_1[7] I *D wrapped_ay8913
*I *680:io_in[12] I *D multiplexer
*CAP
1 io_in[12] 0.0150199
2 *681:io_in[7] 0.00325769
3 *683:io_in_1[7] 0.000585457
4 *682:io_in[7] 0.000571874
5 *679:io_in[7] 0.000674811
6 *676:io_in_1[7] 0.00094313
7 *680:io_in[12] 0.000276175
8 *4:111 0.0191336
9 *4:109 0.0158759
10 *4:107 0.00834494
11 *4:105 0.00834494
12 *4:95 0.00563331
13 *4:91 0.0159075
14 *4:89 0.0108597
15 *4:87 0.000398296
16 *4:85 0.000398296
17 *4:75 0.0102642
18 *4:73 0.00969229
19 *4:71 0.00408571
20 *4:69 0.00408571
21 *4:67 0.00619248
22 *4:65 0.00624905
23 *4:51 0.00914139
24 *4:49 0.00852315
25 *4:37 0.0246869
26 *4:35 0.0237438
27 *4:33 0.015994
28 *4:31 0.015994
29 *4:29 0.00159003
30 *4:27 0.00159003
31 *4:19 0.000727598
32 *4:15 0.0400287
33 *4:13 0.0403701
34 *4:9 0.0229218
35 *4:7 0.0221289
36 *4:5 0.0150199
37 *680:io_in[12] *680:io_in[13] 0
38 *681:io_in[7] *336:13 0
39 *682:io_in[7] *682:io_in[8] 0
40 *4:13 io_out[9] 0
41 *4:15 io_out[9] 0
42 *4:15 *680:ay8913_do[19] 2.07943e-05
43 *4:15 *680:ay8913_do[20] 0.0101629
44 *4:15 *680:ay8913_do[23] 0.00828854
45 *4:15 *680:io_in[16] 0.000503245
46 *4:15 *680:mc14500_sram_in[6] 0
47 *4:15 *5:35 0.000267989
48 *4:15 *7:17 0.000464907
49 *4:15 *8:31 0.0090833
50 *4:15 *9:13 0.000117574
51 *4:15 *10:19 0.0048148
52 *4:15 *114:9 0
53 *4:15 *114:15 0
54 *4:15 *421:14 0
55 *4:15 *425:17 0.0583925
56 *4:15 *624:9 0.000555313
57 *4:19 *680:io_in[13] 0
58 *4:29 *21:21 0.00946989
59 *4:29 *29:157 0.00634272
60 *4:29 *98:9 3.60134e-05
61 *4:29 *100:9 0.0019922
62 *4:29 *105:15 0.000821102
63 *4:33 *506:13 0.0010798
64 *4:33 *512:13 0
65 *4:33 *513:13 0.00751002
66 *4:37 *51:5 0.0126203
67 *4:37 *52:5 0
68 *4:51 *36:51 0.0135284
69 *4:51 *38:9 0.01184
70 *4:51 *38:85 0.00146283
71 *4:51 *621:17 0.000507305
72 *4:67 *679:clk_i 0.0005032
73 *4:67 *617:32 0.000690519
74 *4:71 *540:17 0.0196944
75 *4:71 *559:9 0.00221836
76 *4:75 *682:io_in[8] 0
77 *4:87 *11:77 0.000342642
78 *4:87 *16:51 0.00297021
79 *4:87 *36:69 0.000780778
80 *4:87 *36:71 0.014764
81 *4:91 *461:71 0.00197554
82 *4:91 *469:9 0.001846
83 *4:107 *35:67 0.00532048
84 *4:107 *36:93 0.0019012
85 *4:107 *37:65 0.00127635
86 *4:111 *681:io_in[0] 0.000173848
87 *4:111 *34:96 0.000785032
88 *4:111 *34:106 0.000101624
89 *4:111 *35:69 0
90 *4:111 *36:95 0.0950472
91 *4:111 *313:63 0
92 *680:io_in[11] *680:io_in[12] 0
93 *681:io_in[5] *681:io_in[7] 0.00903691
94 *681:io_in[6] *681:io_in[7] 0.00082671
95 *2:49 *4:87 0.0129614
96 *2:95 *4:15 0
97 *3:21 *4:13 0
98 *3:27 *4:19 0
99 *3:37 *4:29 0.00597606
100 *3:53 *4:51 0.0960523
101 *3:87 *4:87 0.00125887
*RES
1 io_in[12] *4:5 119.025 
2 *4:5 *4:7 4.5 
3 *4:7 *4:9 168.21 
4 *4:9 *4:13 10.89 
5 *4:13 *4:15 414.09 
6 *4:15 *4:19 7.11 
7 *4:19 *680:io_in[12] 1.305 
8 *4:19 *4:27 4.5 
9 *4:27 *4:29 49.59 
10 *4:29 *4:31 4.5 
11 *4:31 *4:33 146.97 
12 *4:33 *4:35 4.5 
13 *4:35 *4:37 203.94 
14 *4:37 *676:io_in_1[7] 5.715 
15 *4:13 *4:49 4.5 
16 *4:49 *4:51 245.79 
17 *4:51 *679:io_in[7] 9.045 
18 *679:io_in[7] *4:65 4.905 
19 *4:65 *4:67 49.77 
20 *4:67 *4:69 4.5 
21 *4:69 *4:71 61.29 
22 *4:71 *4:73 4.5 
23 *4:73 *4:75 68.49 
24 *4:75 *682:io_in[7] 3.915 
25 *4:75 *4:85 4.5 
26 *4:85 *4:87 48.69 
27 *4:87 *4:89 4.5 
28 *4:89 *4:91 80.55 
29 *4:91 *4:95 42.93 
30 *4:95 *683:io_in_1[7] 4.635 
31 *4:95 *4:105 4.5 
32 *4:105 *4:107 78.39 
33 *4:107 *4:109 4.5 
34 *4:109 *4:111 239.85 
35 *4:111 *681:io_in[7] 46.575 
*END

*D_NET *5 0.816041
*CONN
*P io_in[13] I
*I *680:io_in[13] I *D multiplexer
*I *681:io_in[8] I *D wrapped_sid
*I *682:io_in[8] I *D wrapped_qcpu
*CAP
1 io_in[13] 0.0238366
2 *680:io_in[13] 0.000641287
3 *681:io_in[8] 0
4 *682:io_in[8] 0.0504959