*SPEF "ieee 1481-1999"
*DESIGN "blinker"
*DATE "12:42:54 Thursday July 31, 2025"
*VENDOR "The OpenROAD Project"
*PROGRAM "OpenROAD"
*VERSION "b16bda7e82721d10566ff7e2b68f1ff0be9f9e38"
*DESIGN_FLOW "NAME_SCOPE LOCAL" "PIN_CAP NONE"
*DIVIDER /
*DELIMITER :
*BUS_DELIMITER []
*T_UNIT 1 NS
*C_UNIT 1 PF
*R_UNIT 1 OHM
*L_UNIT 1 HENRY

*NAME_MAP
*1 io_out[0]
*2 io_out[1]
*3 io_out[2]
*4 rst_n
*7 wb_clk_i
*8 LFSR\[0\]
*9 LFSR\[1\]
*10 LFSR\[2\]
*11 LFSR\[3\]
*12 LFSR\[4\]
*13 LFSR\[5\]
*14 LFSR\[6\]
*15 OP
*16 OP_reg
*17 PC\[0\]
*18 PC\[1\]
*19 PC\[2\]
*20 PC\[3\]
*21 PC\[4\]
*22 PC\[5\]
*23 _0000_
*24 _0001_
*25 _0002_
*26 _0003_
*27 _0004_
*28 _0005_
*29 _0006_
*30 _0007_
*31 _0008_
*32 _0009_
*33 _0010_
*34 _0011_
*35 _0012_
*36 _0013_
*37 _0014_
*38 _0015_
*39 _0016_
*40 _0017_
*41 _0018_
*42 _0019_
*43 _0020_
*44 _0021_
*45 _0022_
*46 _0023_
*47 _0024_
*48 _0025_
*49 _0026_
*50 _0027_
*51 _0028_
*52 _0029_
*53 _0030_
*54 _0031_
*55 _0032_
*56 _0033_
*57 _0034_
*58 _0035_
*59 _0036_
*60 _0037_
*61 _0038_
*62 _0039_
*63 _0040_
*64 _0041_
*65 _0042_
*66 _0043_
*67 _0044_
*68 _0045_
*69 _0046_
*70 _0047_
*71 _0048_
*72 _0049_
*73 _0050_
*74 _0051_
*75 _0052_
*76 _0053_
*77 _0054_
*78 _0055_
*79 _0056_
*80 _0057_
*81 _0058_
*82 _0059_
*83 _0060_
*84 _0061_
*85 _0062_
*86 _0063_
*87 _0064_
*88 _0065_
*89 _0066_
*90 _0067_
*91 _0068_
*92 _0069_
*93 _0070_
*94 _0071_
*95 _0072_
*96 _0073_
*97 _0074_
*98 _0075_
*99 _0076_
*100 _0077_
*101 _0078_
*102 _0079_
*103 _0080_
*104 _0081_
*105 _0082_
*106 _0083_
*107 _0084_
*108 _0085_
*109 _0086_
*110 _0087_
*111 _0088_
*112 _0089_
*113 _0090_
*114 _0091_
*115 _0092_
*116 _0093_
*117 _0094_
*118 _0095_
*119 _0096_
*120 _0097_
*121 _0098_
*122 _0099_
*123 _0100_
*124 _0101_
*125 _0102_
*126 _0103_
*127 _0104_
*128 _0105_
*129 _0106_
*130 _0107_
*131 _0108_
*132 _0109_
*133 _0110_
*134 _0111_
*135 _0112_
*136 _0113_
*137 _0114_
*138 _0115_
*139 _0116_
*140 _0117_
*141 _0118_
*142 _0119_
*143 _0120_
*144 _0121_
*145 _0122_
*146 _0123_
*147 _0124_
*148 _0125_
*149 _0126_
*150 _0127_
*151 _0128_
*152 _0129_
*153 _0130_
*154 _0131_
*155 _0132_
*156 _0133_
*157 _0134_
*158 _0135_
*159 _0136_
*160 _0137_
*161 _0138_
*162 _0139_
*163 _0140_
*164 _0141_
*165 _0142_
*166 _0143_
*167 _0144_
*168 _0145_
*169 _0146_
*170 _0147_
*171 _0148_
*172 _0149_
*173 _0150_
*174 _0151_
*175 _0152_
*176 _0153_
*177 _0154_
*178 _0155_
*179 _0156_
*180 _0157_
*181 _0158_
*182 _0159_
*183 _0160_
*184 _0161_
*185 _0162_
*186 _0163_
*187 _0164_
*188 _0165_
*189 _0166_
*190 _0167_
*191 _0168_
*192 _0169_
*193 _0170_
*194 _0171_
*195 _0172_
*196 _0173_
*197 _0174_
*198 _0175_
*199 _0176_
*200 _0177_
*201 _0178_
*202 _0179_
*203 _0180_
*204 _0181_
*205 _0182_
*206 _0183_
*207 _0184_
*208 _0185_
*209 _0186_
*210 _0187_
*211 _0188_
*212 _0189_
*213 _0190_
*214 _0191_
*215 _0192_
*216 _0193_
*217 _0194_
*218 _0195_
*219 _0196_
*220 _0197_
*221 _0198_
*222 _0199_
*223 _0200_
*224 _0201_
*225 _0202_
*226 _0203_
*227 _0204_
*228 _0205_
*229 _0206_
*230 _0207_
*231 _0208_
*232 _0209_
*233 _0210_
*234 _0211_
*235 _0212_
*236 _0213_
*237 _0214_
*238 _0215_
*239 _0216_
*240 _0217_
*241 _0218_
*242 _0219_
*243 _0220_
*244 _0221_
*245 _0222_
*246 _0223_
*247 _0224_
*248 _0225_
*249 _0226_
*250 _0227_
*251 _0228_
*252 _0229_
*253 _0230_
*254 _0231_
*255 _0232_
*256 _0233_
*257 _0234_
*258 _0235_
*259 _0236_
*260 _0237_
*261 _0238_
*262 _0239_
*263 _0240_
*264 _0241_
*265 _0242_
*266 _0243_
*267 _0244_
*268 _0245_
*269 _0246_
*270 _0247_
*271 _0248_
*272 _0249_
*273 _0250_
*274 _0251_
*275 _0252_
*276 _0253_
*277 _0254_
*278 _0255_
*279 _0256_
*280 _0257_
*281 _0258_
*282 _0259_
*283 _0260_
*284 _0261_
*285 _0262_
*286 _0263_
*287 _0264_
*288 _0265_
*289 _0266_
*290 _0267_
*291 _0268_
*292 _0269_
*293 _0270_
*294 _0271_
*295 _0272_
*296 _0273_
*297 _0274_
*298 _0275_
*299 _0276_
*300 _0277_
*301 _0278_
*302 _0279_
*303 _0280_
*304 _0281_
*305 _0282_
*306 _0283_
*307 _0284_
*308 _0285_
*309 _0286_
*310 _0287_
*311 _0288_
*312 _0289_
*313 _0290_
*314 _0291_
*315 _0292_
*316 _0293_
*317 _0294_
*318 _0295_
*319 _0296_
*320 _0297_
*321 _0298_
*322 _0299_
*323 _0300_
*324 _0301_
*325 _0302_
*326 _0303_
*327 _0304_
*328 _0305_
*329 _0306_
*330 _0307_
*331 _0308_
*332 _0309_
*333 _0310_
*334 _0311_
*335 _0312_
*336 _0313_
*337 _0314_
*338 _0315_
*339 _0316_
*340 _0317_
*341 _0318_
*342 _0319_
*343 _0320_
*344 _0321_
*345 _0322_
*346 _0323_
*347 _0324_
*348 _0325_
*349 _0326_
*350 _0327_
*351 _0328_
*352 _0329_
*353 _0330_
*354 _0331_
*355 _0332_
*356 _0333_
*357 _0334_
*358 _0335_
*359 _0336_
*360 _0337_
*361 _0338_
*362 _0339_
*363 _0340_
*364 _0341_
*365 _0342_
*366 _0343_
*367 _0344_
*368 _0345_
*369 _0346_
*370 _0347_
*371 _0348_
*372 _0349_
*373 _0350_
*374 _0351_
*375 _0352_
*376 _0353_
*377 _0354_
*378 _0355_
*379 _0356_
*380 _0357_
*381 _0358_
*382 _0359_
*383 _0360_
*384 _0361_
*385 _0362_
*386 _0363_
*387 _0364_
*388 _0365_
*389 _0366_
*390 _0367_
*391 _0368_
*392 _0369_
*393 _0370_
*394 _0371_
*395 _0372_
*396 _0373_
*397 _0374_
*398 _0375_
*399 _0376_
*400 _0377_
*401 _0378_
*402 _0379_
*403 _0380_
*404 _0381_
*405 _0382_
*406 _0383_
*407 _0384_
*408 _0385_
*409 _0386_
*410 _0387_
*411 _0388_
*412 _0389_
*413 _0390_
*414 _0391_
*415 _0392_
*416 _0393_
*417 _0394_
*418 _0395_
*419 _0396_
*420 _0397_
*421 _0398_
*422 _0399_
*423 _0400_
*424 _0401_
*425 _0402_
*426 _0403_
*427 _0404_
*428 _0405_
*429 _0406_
*430 _0407_
*431 _0408_
*432 _0409_
*433 _0410_
*434 _0411_
*435 _0412_
*436 _0413_
*437 _0414_
*438 _0415_
*439 _0416_
*440 _0417_
*441 _0418_
*442 _0419_
*443 _0420_
*444 _0421_
*445 _0422_
*446 _0423_
*447 _0424_
*448 _0425_
*449 _0426_
*450 _0427_
*451 _0428_
*452 _0429_
*453 _0430_
*454 _0431_
*455 _0432_
*456 _0433_
*457 _0434_
*458 _0435_
*459 _0436_
*460 _0437_
*461 _0438_
*462 _0439_
*463 _0440_
*464 _0441_
*465 _0442_
*466 _0443_
*467 _0444_
*468 _0445_
*469 _0446_
*470 _0447_
*471 _0448_
*472 _0449_
*473 _0450_
*474 _0451_
*475 _0452_
*476 _0453_
*477 _0454_
*478 _0455_
*479 _0456_
*480 _0457_
*481 _0458_
*482 _0459_
*483 _0460_
*484 _0461_
*485 _0462_
*486 _0463_
*487 _0464_
*488 _0465_
*489 _0466_
*490 _0467_
*491 _0468_
*492 _0469_
*493 _0470_
*494 _0471_
*495 _0472_
*496 _0473_
*497 _0474_
*498 _0475_
*499 _0476_
*500 _0477_
*501 _0478_
*502 _0479_
*503 _0480_
*504 clknet_0_wb_clk_i
*505 clknet_3_0__leaf_wb_clk_i
*506 clknet_3_1__leaf_wb_clk_i
*507 clknet_3_2__leaf_wb_clk_i
*508 clknet_3_3__leaf_wb_clk_i
*509 clknet_3_4__leaf_wb_clk_i
*510 clknet_3_5__leaf_wb_clk_i
*511 clknet_3_6__leaf_wb_clk_i
*512 clknet_3_7__leaf_wb_clk_i
*513 clock_div\[0\]
*514 clock_div\[1\]
*515 clock_div\[2\]
*516 clock_div\[3\]
*517 clock_div\[4\]
*518 clock_div\[5\]
*519 clock_div\[6\]
*520 clock_div\[7\]
*521 clock_div\[8\]
*522 counter\[0\]
*523 counter\[10\]
*524 counter\[11\]
*525 counter\[12\]
*526 counter\[13\]
*527 counter\[14\]
*528 counter\[15\]
*529 counter\[16\]
*530 counter\[17\]
*531 counter\[18\]
*532 counter\[19\]
*533 counter\[1\]
*534 counter\[20\]
*535 counter\[21\]
*536 counter\[22\]
*537 counter\[2\]
*538 counter\[3\]
*539 counter\[4\]
*540 counter\[5\]
*541 counter\[6\]
*542 counter\[7\]
*543 counter\[8\]
*544 counter\[9\]
*545 just_inc
*546 just_rst
*547 master_clk_div\[0\]
*548 master_clk_div\[1\]
*549 master_clk_div\[2\]
*550 master_clk_div\[3\]
*551 master_clk_div\[4\]
*552 master_clk_div\[5\]
*553 master_clk_div\[6\]
*554 net1
*555 net2
*556 net3
*557 net4
*558 net5
*559 prev_clk_div
*560 rhythm_LFSR\[0\]
*561 rhythm_LFSR\[1\]
*562 rhythm_LFSR\[2\]
*563 rhythm_LFSR\[3\]
*564 slow_blink
*565 tempo_LFSR\[0\]
*566 tempo_LFSR\[1\]
*567 tempo_LFSR\[2\]
*568 tempo_LFSR\[3\]
*569 tune_ROM\[0\]
*570 tune_ROM\[1\]
*571 tune_ROM\[2\]
*572 tune_ROM\[3\]
*573 tune_ROM\[4\]
*574 tune_ROM\[5\]
*575 ANTENNA__0511__A
*576 ANTENNA__0516__A
*577 ANTENNA__0554__A
*578 ANTENNA__0619__B
*579 ANTENNA__0628__D
*580 ANTENNA__0642__A
*581 ANTENNA__0654__A
*582 ANTENNA__0673__A
*583 ANTENNA__0680__A
*584 ANTENNA__0768__A
*585 ANTENNA__0785__B
*586 ANTENNA__0787__B
*587 ANTENNA__0799__A
*588 ANTENNA__0801__A
*589 ANTENNA__0832__C
*590 ANTENNA__0854__C
*591 ANTENNA__0865__A
*592 ANTENNA__0869__A
*593 ANTENNA__0873__A
*594 ANTENNA__0964__CLK
*595 ANTENNA__0965__CLK
*596 ANTENNA__0966__CLK
*597 ANTENNA__0967__CLK
*598 ANTENNA__0968__CLK
*599 ANTENNA__0969__CLK
*600 ANTENNA__0970__CLK
*601 ANTENNA__0971__CLK
*602 ANTENNA__0972__CLK
*603 ANTENNA__0973__CLK
*604 ANTENNA__0974__CLK
*605 ANTENNA__0975__CLK
*606 ANTENNA__0976__CLK
*607 ANTENNA__0977__CLK
*608 ANTENNA__0978__CLK
*609 ANTENNA__0979__CLK
*610 ANTENNA__0980__CLK
*611 ANTENNA__0981__CLK
*612 ANTENNA__0982__CLK
*613 ANTENNA__0983__CLK
*614 ANTENNA__0984__CLK
*615 ANTENNA__0985__CLK
*616 ANTENNA__0986__CLK
*617 ANTENNA__0987__CLK
*618 ANTENNA__0988__CLK
*619 ANTENNA__0989__CLK
*620 ANTENNA__0991__CLK
*621 ANTENNA__0996__D
*622 ANTENNA__0997__CLK
*623 ANTENNA__1000__CLK
*624 ANTENNA__1001__CLK
*625 ANTENNA__1002__CLK
*626 ANTENNA__1004__CLK
*627 ANTENNA__1005__CLK
*628 ANTENNA__1006__CLK
*629 ANTENNA__1009__CLK
*630 ANTENNA__1010__CLK
*631 ANTENNA__1012__CLK
*632 ANTENNA__1017__CLK
*633 ANTENNA__1018__CLK
*634 ANTENNA__1021__CLK
*635 ANTENNA__1022__CLK
*636 ANTENNA__1026__CLK
*637 ANTENNA__1027__CLK
*638 ANTENNA__1028__CLK
*639 ANTENNA_clkbuf_0_wb_clk_i_A
*640 ANTENNA_clkbuf_3_0__f_wb_clk_i_A
*641 ANTENNA_clkbuf_3_1__f_wb_clk_i_A
*642 ANTENNA_clkbuf_3_2__f_wb_clk_i_A
*643 ANTENNA_clkbuf_3_3__f_wb_clk_i_A
*644 ANTENNA_clkbuf_3_4__f_wb_clk_i_A
*645 ANTENNA_clkbuf_3_5__f_wb_clk_i_A
*646 ANTENNA_clkbuf_3_6__f_wb_clk_i_A
*647 ANTENNA_clkbuf_3_7__f_wb_clk_i_A
*648 ANTENNA_clkload0_A
*649 ANTENNA_clkload2_A
*650 ANTENNA_clkload4_A
*651 ANTENNA_clkload5_A
*652 ANTENNA_clkload6_A
*653 ANTENNA_input1_A
*654 FILLER_0_0_101
*655 FILLER_0_0_104
*656 FILLER_0_0_120
*657 FILLER_0_0_138
*658 FILLER_0_0_142
*659 FILLER_0_0_144
*660 FILLER_0_0_172
*661 FILLER_0_0_18
*662 FILLER_0_0_180
*663 FILLER_0_0_188
*664 FILLER_0_0_192
*665 FILLER_0_0_2
*666 FILLER_0_0_203
*667 FILLER_0_0_206
*668 FILLER_0_0_210
*669 FILLER_0_0_212
*670 FILLER_0_0_240
*671 FILLER_0_0_249
*672 FILLER_0_0_257
*673 FILLER_0_0_270
*674 FILLER_0_0_287
*675 FILLER_0_0_33
*676 FILLER_0_0_36
*677 FILLER_0_0_40
*678 FILLER_0_0_44
*679 FILLER_0_0_60
*680 FILLER_0_0_70
*681 FILLER_0_0_78
*682 FILLER_0_0_82
*683 FILLER_0_0_91
*684 FILLER_0_0_99
*685 FILLER_0_10_10
*686 FILLER_0_10_104
*687 FILLER_0_10_111
*688 FILLER_0_10_118
*689 FILLER_0_10_14
*690 FILLER_0_10_140
*691 FILLER_0_10_151
*692 FILLER_0_10_159
*693 FILLER_0_10_177
*694 FILLER_0_10_181
*695 FILLER_0_10_183
*696 FILLER_0_10_2
*697 FILLER_0_10_220
*698 FILLER_0_10_224
*699 FILLER_0_10_243
*700 FILLER_0_10_247
*701 FILLER_0_10_251
*702 FILLER_0_10_255
*703 FILLER_0_10_259
*704 FILLER_0_10_267
*705 FILLER_0_10_271
*706 FILLER_0_10_28
*707 FILLER_0_10_286
*708 FILLER_0_10_294
*709 FILLER_0_10_32
*710 FILLER_0_10_34
*711 FILLER_0_10_37
*712 FILLER_0_10_45
*713 FILLER_0_10_60
*714 FILLER_0_10_64
*715 FILLER_0_10_83
*716 FILLER_0_10_91
*717 FILLER_0_11_10
*718 FILLER_0_11_122
*719 FILLER_0_11_126
*720 FILLER_0_11_160
*721 FILLER_0_11_191
*722 FILLER_0_11_2
*723 FILLER_0_11_262
*724 FILLER_0_11_264
*725 FILLER_0_11_276
*726 FILLER_0_11_282
*727 FILLER_0_11_290
*728 FILLER_0_11_294
*729 FILLER_0_11_40
*730 FILLER_0_11_42
*731 FILLER_0_11_53
*732 FILLER_0_11_68
*733 FILLER_0_11_72
*734 FILLER_0_11_76
*735 FILLER_0_12_117
*736 FILLER_0_12_119
*737 FILLER_0_12_140
*738 FILLER_0_12_166
*739 FILLER_0_12_174
*740 FILLER_0_12_177
*741 FILLER_0_12_193
*742 FILLER_0_12_2
*743 FILLER_0_12_221
*744 FILLER_0_12_223
*745 FILLER_0_12_231
*746 FILLER_0_12_293
*747 FILLER_0_12_6
*748 FILLER_0_12_65
*749 FILLER_0_12_83
*750 FILLER_0_12_92
*751 FILLER_0_12_94
*752 FILLER_0_13_126
*753 FILLER_0_13_159
*754 FILLER_0_13_175
*755 FILLER_0_13_189
*756 FILLER_0_13_191
*757 FILLER_0_13_2
*758 FILLER_0_13_201
*759 FILLER_0_13_205
*760 FILLER_0_13_209
*761 FILLER_0_13_252
*762 FILLER_0_13_256
*763 FILLER_0_13_260
*764 FILLER_0_13_288
*765 FILLER_0_13_292
*766 FILLER_0_13_294
*767 FILLER_0_13_37
*768 FILLER_0_13_53
*769 FILLER_0_13_61
*770 FILLER_0_13_65
*771 FILLER_0_13_67
*772 FILLER_0_13_72
*773 FILLER_0_13_76
*774 FILLER_0_13_92
*775 FILLER_0_14_10
*776 FILLER_0_14_102
*777 FILLER_0_14_104
*778 FILLER_0_14_107
*779 FILLER_0_14_115
*780 FILLER_0_14_117
*781 FILLER_0_14_12
*782 FILLER_0_14_120
*783 FILLER_0_14_136
*784 FILLER_0_14_144
*785 FILLER_0_14_146
*786 FILLER_0_14_153
*787 FILLER_0_14_169
*788 FILLER_0_14_173
*789 FILLER_0_14_177
*790 FILLER_0_14_19
*791 FILLER_0_14_193
*792 FILLER_0_14_2
*793 FILLER_0_14_209
*794 FILLER_0_14_213
*795 FILLER_0_14_215
*796 FILLER_0_14_230
*797 FILLER_0_14_243
*798 FILLER_0_14_254
*799 FILLER_0_14_258
*800 FILLER_0_14_37
*801 FILLER_0_14_57
*802 FILLER_0_14_68
*803 FILLER_0_14_70
*804 FILLER_0_14_98
*805 FILLER_0_15_101
*806 FILLER_0_15_109
*807 FILLER_0_15_113
*808 FILLER_0_15_115
*809 FILLER_0_15_126
*810 FILLER_0_15_142
*811 FILLER_0_15_154
*812 FILLER_0_15_185
*813 FILLER_0_15_189
*814 FILLER_0_15_205
*815 FILLER_0_15_209
*816 FILLER_0_15_212
*817 FILLER_0_15_228
*818 FILLER_0_15_250
*819 FILLER_0_15_254
*820 FILLER_0_15_256
*821 FILLER_0_15_263
*822 FILLER_0_15_267
*823 FILLER_0_15_276
*824 FILLER_0_15_282
*825 FILLER_0_15_29
*826 FILLER_0_15_290
*827 FILLER_0_15_294
*828 FILLER_0_15_33
*829 FILLER_0_15_41
*830 FILLER_0_15_69
*831 FILLER_0_15_97
*832 FILLER_0_16_101
*833 FILLER_0_16_107
*834 FILLER_0_16_111
*835 FILLER_0_16_140
*836 FILLER_0_16_148
*837 FILLER_0_16_152
*838 FILLER_0_16_154
*839 FILLER_0_16_168
*840 FILLER_0_16_172
*841 FILLER_0_16_174
*842 FILLER_0_16_177
*843 FILLER_0_16_179
*844 FILLER_0_16_2
*845 FILLER_0_16_207
*846 FILLER_0_16_211
*847 FILLER_0_16_219
*848 FILLER_0_16_247
*849 FILLER_0_16_251
*850 FILLER_0_16_259
*851 FILLER_0_16_263
*852 FILLER_0_16_265
*853 FILLER_0_16_268
*854 FILLER_0_16_279
*855 FILLER_0_16_31
*856 FILLER_0_16_37
*857 FILLER_0_16_53
*858 FILLER_0_16_57
*859 FILLER_0_16_85
*860 FILLER_0_16_89
*861 FILLER_0_16_97
*862 FILLER_0_17_113
*863 FILLER_0_17_117
*864 FILLER_0_17_131
*865 FILLER_0_17_139
*866 FILLER_0_17_142
*867 FILLER_0_17_144
*868 FILLER_0_17_171
*869 FILLER_0_17_18
*870 FILLER_0_17_2
*871 FILLER_0_17_201
*872 FILLER_0_17_209
*873 FILLER_0_17_22
*874 FILLER_0_17_261
*875 FILLER_0_17_277
*876 FILLER_0_17_279
*877 FILLER_0_17_289
*878 FILLER_0_17_293
*879 FILLER_0_17_35
*880 FILLER_0_17_63
*881 FILLER_0_17_67
*882 FILLER_0_17_69
*883 FILLER_0_18_10
*884 FILLER_0_18_103
*885 FILLER_0_18_107
*886 FILLER_0_18_133
*887 FILLER_0_18_137
*888 FILLER_0_18_144
*889 FILLER_0_18_146
*890 FILLER_0_18_149
*891 FILLER_0_18_151
*892 FILLER_0_18_177
*893 FILLER_0_18_181
*894 FILLER_0_18_197
*895 FILLER_0_18_2
*896 FILLER_0_18_213
*897 FILLER_0_18_221
*898 FILLER_0_18_243
*899 FILLER_0_18_33
*900 FILLER_0_18_44
*901 FILLER_0_18_48
*902 FILLER_0_18_60
*903 FILLER_0_18_76
*904 FILLER_0_18_86
*905 FILLER_0_19_10
*906 FILLER_0_19_136
*907 FILLER_0_19_14
*908 FILLER_0_19_194
*909 FILLER_0_19_2
*910 FILLER_0_19_212
*911 FILLER_0_19_250
*912 FILLER_0_19_259
*913 FILLER_0_19_278
*914 FILLER_0_19_286
*915 FILLER_0_19_294
*916 FILLER_0_19_37
*917 FILLER_0_19_41
*918 FILLER_0_19_69
*919 FILLER_0_19_72
*920 FILLER_0_19_88
*921 FILLER_0_19_96
*922 FILLER_0_1_101
*923 FILLER_0_1_109
*924 FILLER_0_1_142
*925 FILLER_0_1_146
*926 FILLER_0_1_153
*927 FILLER_0_1_161
*928 FILLER_0_1_190
*929 FILLER_0_1_209
*930 FILLER_0_1_251
*931 FILLER_0_1_288
*932 FILLER_0_1_292
*933 FILLER_0_1_294
*934 FILLER_0_1_43
*935 FILLER_0_1_65
*936 FILLER_0_1_69
*937 FILLER_0_1_78
*938 FILLER_0_20_114
*939 FILLER_0_20_127
*940 FILLER_0_20_155
*941 FILLER_0_20_172
*942 FILLER_0_20_174
*943 FILLER_0_20_181
*944 FILLER_0_20_2
*945 FILLER_0_20_209
*946 FILLER_0_20_211
*947 FILLER_0_20_239
*948 FILLER_0_20_243
*949 FILLER_0_20_254
*950 FILLER_0_20_258
*951 FILLER_0_20_34
*952 FILLER_0_20_47
*953 FILLER_0_20_6
*954 FILLER_0_20_72
*955 FILLER_0_20_8
*956 FILLER_0_20_80
*957 FILLER_0_20_94
*958 FILLER_0_21_10
*959 FILLER_0_21_109
*960 FILLER_0_21_142
*961 FILLER_0_21_153
*962 FILLER_0_21_155
*963 FILLER_0_21_190
*964 FILLER_0_21_2
*965 FILLER_0_21_204
*966 FILLER_0_21_208
*967 FILLER_0_21_212
*968 FILLER_0_21_220
*969 FILLER_0_21_222
*970 FILLER_0_21_266
*971 FILLER_0_21_270
*972 FILLER_0_21_278
*973 FILLER_0_21_288
*974 FILLER_0_21_292
*975 FILLER_0_21_294
*976 FILLER_0_21_44
*977 FILLER_0_21_69
*978 FILLER_0_22_103
*979 FILLER_0_22_107
*980 FILLER_0_22_111
*981 FILLER_0_22_119
*982 FILLER_0_22_128
*983 FILLER_0_22_133
*984 FILLER_0_22_149
*985 FILLER_0_22_157
*986 FILLER_0_22_161
*987 FILLER_0_22_18
*988 FILLER_0_22_2
*989 FILLER_0_22_231
*990 FILLER_0_22_243
*991 FILLER_0_22_26
*992 FILLER_0_22_279
*993 FILLER_0_22_34
*994 FILLER_0_22_47
*995 FILLER_0_22_58
*996 FILLER_0_22_74
*997 FILLER_0_22_82
*998 FILLER_0_22_86
*999 FILLER_0_22_88
*1000 FILLER_0_23_109
*1001 FILLER_0_23_125
*1002 FILLER_0_23_133
*1003 FILLER_0_23_137
*1004 FILLER_0_23_139
*1005 FILLER_0_23_142
*1006 FILLER_0_23_156
*1007 FILLER_0_23_172
*1008 FILLER_0_23_18
*1009 FILLER_0_23_186
*1010 FILLER_0_23_190
*1011 FILLER_0_23_2
*1012 FILLER_0_23_204
*1013 FILLER_0_23_208
*1014 FILLER_0_23_212
*1015 FILLER_0_23_22
*1016 FILLER_0_23_228
*1017 FILLER_0_23_244
*1018 FILLER_0_23_282
*1019 FILLER_0_23_286
*1020 FILLER_0_23_294
*1021 FILLER_0_23_35
*1022 FILLER_0_23_51
*1023 FILLER_0_23_59
*1024 FILLER_0_23_66
*1025 FILLER_0_23_72
*1026 FILLER_0_23_88
*1027 FILLER_0_23_90
*1028 FILLER_0_23_97
*1029 FILLER_0_24_120
*1030 FILLER_0_24_128
*1031 FILLER_0_24_132
*1032 FILLER_0_24_16
*1033 FILLER_0_24_161
*1034 FILLER_0_24_169
*1035 FILLER_0_24_173
*1036 FILLER_0_24_177
*1037 FILLER_0_24_185
*1038 FILLER_0_24_2
*1039 FILLER_0_24_221
*1040 FILLER_0_24_237
*1041 FILLER_0_24_272
*1042 FILLER_0_24_276
*1043 FILLER_0_24_292
*1044 FILLER_0_24_294
*1045 FILLER_0_24_30
*1046 FILLER_0_24_34
*1047 FILLER_0_24_37
*1048 FILLER_0_24_79
*1049 FILLER_0_24_83
*1050 FILLER_0_24_98
*1051 FILLER_0_25_142
*1052 FILLER_0_25_156
*1053 FILLER_0_25_165
*1054 FILLER_0_25_175
*1055 FILLER_0_25_219
*1056 FILLER_0_25_223
*1057 FILLER_0_25_252
*1058 FILLER_0_25_256
*1059 FILLER_0_25_258
*1060 FILLER_0_25_265
*1061 FILLER_0_25_273
*1062 FILLER_0_25_277
*1063 FILLER_0_25_279
*1064 FILLER_0_25_282
*1065 FILLER_0_25_290
*1066 FILLER_0_25_294
*1067 FILLER_0_25_50
*1068 FILLER_0_25_54
*1069 FILLER_0_25_56
*1070 FILLER_0_25_67
*1071 FILLER_0_25_69
*1072 FILLER_0_25_72
*1073 FILLER_0_26_151
*1074 FILLER_0_26_177
*1075 FILLER_0_26_185
*1076 FILLER_0_26_189
*1077 FILLER_0_26_196
*1078 FILLER_0_26_2
*1079 FILLER_0_26_225
*1080 FILLER_0_26_253
*1081 FILLER_0_26_269
*1082 FILLER_0_26_285
*1083 FILLER_0_26_293
*1084 FILLER_0_26_37
*1085 FILLER_0_26_66
*1086 FILLER_0_26_81
*1087 FILLER_0_27_104
*1088 FILLER_0_27_137
*1089 FILLER_0_27_139
*1090 FILLER_0_27_148
*1091 FILLER_0_27_16
*1092 FILLER_0_27_190
*1093 FILLER_0_27_2
*1094 FILLER_0_27_20
*1095 FILLER_0_27_209
*1096 FILLER_0_27_218
*1097 FILLER_0_27_22
*1098 FILLER_0_27_228
*1099 FILLER_0_27_256
*1100 FILLER_0_27_272
*1101 FILLER_0_27_282
*1102 FILLER_0_27_290
*1103 FILLER_0_27_294
*1104 FILLER_0_27_37
*1105 FILLER_0_27_45
*1106 FILLER_0_27_64
*1107 FILLER_0_27_68
*1108 FILLER_0_28_111
*1109 FILLER_0_28_147
*1110 FILLER_0_28_162
*1111 FILLER_0_28_173
*1112 FILLER_0_28_177
*1113 FILLER_0_28_193
*1114 FILLER_0_28_195
*1115 FILLER_0_28_212
*1116 FILLER_0_28_228
*1117 FILLER_0_28_243
*1118 FILLER_0_28_274
*1119 FILLER_0_28_278
*1120 FILLER_0_28_294
*1121 FILLER_0_28_37
*1122 FILLER_0_28_41
*1123 FILLER_0_28_73
*1124 FILLER_0_28_77
*1125 FILLER_0_29_103
*1126 FILLER_0_29_107
*1127 FILLER_0_29_123
*1128 FILLER_0_29_127
*1129 FILLER_0_29_129
*1130 FILLER_0_29_132
*1131 FILLER_0_29_136
*1132 FILLER_0_29_169
*1133 FILLER_0_29_180
*1134 FILLER_0_29_188
*1135 FILLER_0_29_198
*1136 FILLER_0_29_2
*1137 FILLER_0_29_206
*1138 FILLER_0_29_212
*1139 FILLER_0_29_220
*1140 FILLER_0_29_222
*1141 FILLER_0_29_229
*1142 FILLER_0_29_231
*1143 FILLER_0_29_239
*1144 FILLER_0_29_255
*1145 FILLER_0_29_271
*1146 FILLER_0_29_279
*1147 FILLER_0_29_282
*1148 FILLER_0_29_290
*1149 FILLER_0_29_294
*1150 FILLER_0_29_6
*1151 FILLER_0_29_69
*1152 FILLER_0_29_79
*1153 FILLER_0_29_83
*1154 FILLER_0_29_85
*1155 FILLER_0_29_92
*1156 FILLER_0_2_10
*1157 FILLER_0_2_102
*1158 FILLER_0_2_104
*1159 FILLER_0_2_107
*1160 FILLER_0_2_138
*1161 FILLER_0_2_142
*1162 FILLER_0_2_171
*1163 FILLER_0_2_192
*1164 FILLER_0_2_2
*1165 FILLER_0_2_220
*1166 FILLER_0_2_254
*1167 FILLER_0_2_256
*1168 FILLER_0_2_37
*1169 FILLER_0_2_41
*1170 FILLER_0_2_63
*1171 FILLER_0_2_71
*1172 FILLER_0_2_75
*1173 FILLER_0_30_102
*1174 FILLER_0_30_104
*1175 FILLER_0_30_107
*1176 FILLER_0_30_111
*1177 FILLER_0_30_126
*1178 FILLER_0_30_130
*1179 FILLER_0_30_132
*1180 FILLER_0_30_147
*1181 FILLER_0_30_163
*1182 FILLER_0_30_167
*1183 FILLER_0_30_18
*1184 FILLER_0_30_2
*1185 FILLER_0_30_204
*1186 FILLER_0_30_239
*1187 FILLER_0_30_243
*1188 FILLER_0_30_247
*1189 FILLER_0_30_263
*1190 FILLER_0_30_279
*1191 FILLER_0_30_34
*1192 FILLER_0_30_37
*1193 FILLER_0_30_41
*1194 FILLER_0_30_45
*1195 FILLER_0_30_47
*1196 FILLER_0_30_54
*1197 FILLER_0_30_82
*1198 FILLER_0_30_86
*1199 FILLER_0_31_107
*1200 FILLER_0_31_111
*1201 FILLER_0_31_142
*1202 FILLER_0_31_158
*1203 FILLER_0_31_174
*1204 FILLER_0_31_176
*1205 FILLER_0_31_18
*1206 FILLER_0_31_183
*1207 FILLER_0_31_191
*1208 FILLER_0_31_195
*1209 FILLER_0_31_2
*1210 FILLER_0_31_203
*1211 FILLER_0_31_207
*1212 FILLER_0_31_209
*1213 FILLER_0_31_219
*1214 FILLER_0_31_223
*1215 FILLER_0_31_225
*1216 FILLER_0_31_251
*1217 FILLER_0_31_267
*1218 FILLER_0_31_275
*1219 FILLER_0_31_279
*1220 FILLER_0_31_282
*1221 FILLER_0_31_290
*1222 FILLER_0_31_294
*1223 FILLER_0_31_34
*1224 FILLER_0_31_50
*1225 FILLER_0_31_58
*1226 FILLER_0_31_66
*1227 FILLER_0_31_72
*1228 FILLER_0_31_80
*1229 FILLER_0_31_84
*1230 FILLER_0_31_91
*1231 FILLER_0_31_95
*1232 FILLER_0_32_101
*1233 FILLER_0_32_131
*1234 FILLER_0_32_139
*1235 FILLER_0_32_177
*1236 FILLER_0_32_18
*1237 FILLER_0_32_185
*1238 FILLER_0_32_189
*1239 FILLER_0_32_197
*1240 FILLER_0_32_2
*1241 FILLER_0_32_220
*1242 FILLER_0_32_224
*1243 FILLER_0_32_239
*1244 FILLER_0_32_243
*1245 FILLER_0_32_247
*1246 FILLER_0_32_263
*1247 FILLER_0_32_279
*1248 FILLER_0_32_34
*1249 FILLER_0_32_37
*1250 FILLER_0_32_53
*1251 FILLER_0_32_69
*1252 FILLER_0_32_73
*1253 FILLER_0_33_113
*1254 FILLER_0_33_121
*1255 FILLER_0_33_125
*1256 FILLER_0_33_127
*1257 FILLER_0_33_135
*1258 FILLER_0_33_139
*1259 FILLER_0_33_142
*1260 FILLER_0_33_146
*1261 FILLER_0_33_179
*1262 FILLER_0_33_18
*1263 FILLER_0_33_187
*1264 FILLER_0_33_2
*1265 FILLER_0_33_206
*1266 FILLER_0_33_223
*1267 FILLER_0_33_238
*1268 FILLER_0_33_254
*1269 FILLER_0_33_270
*1270 FILLER_0_33_278
*1271 FILLER_0_33_282
*1272 FILLER_0_33_290
*1273 FILLER_0_33_294
*1274 FILLER_0_33_34
*1275 FILLER_0_33_50
*1276 FILLER_0_33_66
*1277 FILLER_0_33_72
*1278 FILLER_0_33_88
*1279 FILLER_0_33_90
*1280 FILLER_0_33_98
*1281 FILLER_0_34_101
*1282 FILLER_0_34_121
*1283 FILLER_0_34_125
*1284 FILLER_0_34_152
*1285 FILLER_0_34_154
*1286 FILLER_0_34_177
*1287 FILLER_0_34_18
*1288 FILLER_0_34_2
*1289 FILLER_0_34_215
*1290 FILLER_0_34_217
*1291 FILLER_0_34_247
*1292 FILLER_0_34_251
*1293 FILLER_0_34_267
*1294 FILLER_0_34_283
*1295 FILLER_0_34_291
*1296 FILLER_0_34_34
*1297 FILLER_0_34_37
*1298 FILLER_0_34_53
*1299 FILLER_0_34_69
*1300 FILLER_0_34_73
*1301 FILLER_0_35_142
*1302 FILLER_0_35_150
*1303 FILLER_0_35_179
*1304 FILLER_0_35_18
*1305 FILLER_0_35_2
*1306 FILLER_0_35_218
*1307 FILLER_0_35_226
*1308 FILLER_0_35_230
*1309 FILLER_0_35_237
*1310 FILLER_0_35_253
*1311 FILLER_0_35_269
*1312 FILLER_0_35_277
*1313 FILLER_0_35_279
*1314 FILLER_0_35_282
*1315 FILLER_0_35_290
*1316 FILLER_0_35_294
*1317 FILLER_0_35_34
*1318 FILLER_0_35_50
*1319 FILLER_0_35_66
*1320 FILLER_0_35_72
*1321 FILLER_0_35_80
*1322 FILLER_0_35_84
*1323 FILLER_0_36_111
*1324 FILLER_0_36_133
*1325 FILLER_0_36_135
*1326 FILLER_0_36_138
*1327 FILLER_0_36_154
*1328 FILLER_0_36_165
*1329 FILLER_0_36_169
*1330 FILLER_0_36_172
*1331 FILLER_0_36_18
*1332 FILLER_0_36_188
*1333 FILLER_0_36_2
*1334 FILLER_0_36_206
*1335 FILLER_0_36_222
*1336 FILLER_0_36_240
*1337 FILLER_0_36_256
*1338 FILLER_0_36_274
*1339 FILLER_0_36_290
*1340 FILLER_0_36_294
*1341 FILLER_0_36_36
*1342 FILLER_0_36_52
*1343 FILLER_0_36_70
*1344 FILLER_0_36_86
*1345 FILLER_0_3_109
*1346 FILLER_0_3_117
*1347 FILLER_0_3_123
*1348 FILLER_0_3_131
*1349 FILLER_0_3_168
*1350 FILLER_0_3_184
*1351 FILLER_0_3_2
*1352 FILLER_0_3_216
*1353 FILLER_0_3_218
*1354 FILLER_0_3_25
*1355 FILLER_0_3_262
*1356 FILLER_0_3_266
*1357 FILLER_0_3_279
*1358 FILLER_0_3_289
*1359 FILLER_0_3_29
*1360 FILLER_0_3_293
*1361 FILLER_0_3_37
*1362 FILLER_0_3_48
*1363 FILLER_0_3_6
*1364 FILLER_0_3_62
*1365 FILLER_0_3_72
*1366 FILLER_0_3_80
*1367 FILLER_0_3_87
*1368 FILLER_0_3_98
*1369 FILLER_0_4_10
*1370 FILLER_0_4_104
*1371 FILLER_0_4_114
*1372 FILLER_0_4_123
*1373 FILLER_0_4_158
*1374 FILLER_0_4_174
*1375 FILLER_0_4_177
*1376 FILLER_0_4_181
*1377 FILLER_0_4_183
*1378 FILLER_0_4_190
*1379 FILLER_0_4_2
*1380 FILLER_0_4_221
*1381 FILLER_0_4_225
*1382 FILLER_0_4_233
*1383 FILLER_0_4_244
*1384 FILLER_0_4_247
*1385 FILLER_0_4_249
*1386 FILLER_0_4_264
*1387 FILLER_0_4_43
*1388 FILLER_0_4_51
*1389 FILLER_0_4_69
*1390 FILLER_0_4_85
*1391 FILLER_0_4_96
*1392 FILLER_0_5_10
*1393 FILLER_0_5_108
*1394 FILLER_0_5_12
*1395 FILLER_0_5_133
*1396 FILLER_0_5_137
*1397 FILLER_0_5_139
*1398 FILLER_0_5_142
*1399 FILLER_0_5_158
*1400 FILLER_0_5_160
*1401 FILLER_0_5_188
*1402 FILLER_0_5_190
*1403 FILLER_0_5_2
*1404 FILLER_0_5_208
*1405 FILLER_0_5_212
*1406 FILLER_0_5_220
*1407 FILLER_0_5_224
*1408 FILLER_0_5_226
*1409 FILLER_0_5_23
*1410 FILLER_0_5_234
*1411 FILLER_0_5_242
*1412 FILLER_0_5_246
*1413 FILLER_0_5_248
*1414 FILLER_0_5_256
*1415 FILLER_0_5_264
*1416 FILLER_0_5_268
*1417 FILLER_0_5_276
*1418 FILLER_0_5_288
*1419 FILLER_0_5_292
*1420 FILLER_0_5_294
*1421 FILLER_0_5_39
*1422 FILLER_0_5_47
*1423 FILLER_0_5_51
*1424 FILLER_0_5_59
*1425 FILLER_0_5_67
*1426 FILLER_0_5_69
*1427 FILLER_0_5_72
*1428 FILLER_0_5_74
*1429 FILLER_0_5_85
*1430 FILLER_0_6_10
*1431 FILLER_0_6_114
*1432 FILLER_0_6_118
*1433 FILLER_0_6_120
*1434 FILLER_0_6_160
*1435 FILLER_0_6_168
*1436 FILLER_0_6_172
*1437 FILLER_0_6_174
*1438 FILLER_0_6_184
*1439 FILLER_0_6_186
*1440 FILLER_0_6_2
*1441 FILLER_0_6_208
*1442 FILLER_0_6_224
*1443 FILLER_0_6_238
*1444 FILLER_0_6_254
*1445 FILLER_0_6_258
*1446 FILLER_0_6_268
*1447 FILLER_0_6_270
*1448 FILLER_0_6_275
*1449 FILLER_0_6_291
*1450 FILLER_0_6_31
*1451 FILLER_0_6_37
*1452 FILLER_0_6_45
*1453 FILLER_0_6_55
*1454 FILLER_0_6_82
*1455 FILLER_0_7_10
*1456 FILLER_0_7_112
*1457 FILLER_0_7_133
*1458 FILLER_0_7_137
*1459 FILLER_0_7_139
*1460 FILLER_0_7_142
*1461 FILLER_0_7_158
*1462 FILLER_0_7_196
*1463 FILLER_0_7_2
*1464 FILLER_0_7_200
*1465 FILLER_0_7_208
*1466 FILLER_0_7_219
*1467 FILLER_0_7_22
*1468 FILLER_0_7_235
*1469 FILLER_0_7_288
*1470 FILLER_0_7_292
*1471 FILLER_0_7_294
*1472 FILLER_0_7_30
*1473 FILLER_0_7_38
*1474 FILLER_0_7_49
*1475 FILLER_0_7_68
*1476 FILLER_0_7_72
*1477 FILLER_0_7_80
*1478 FILLER_0_7_84
*1479 FILLER_0_7_86
*1480 FILLER_0_7_91
*1481 FILLER_0_8_10
*1482 FILLER_0_8_102
*1483 FILLER_0_8_104
*1484 FILLER_0_8_107
*1485 FILLER_0_8_123
*1486 FILLER_0_8_136
*1487 FILLER_0_8_167
*1488 FILLER_0_8_177
*1489 FILLER_0_8_199
*1490 FILLER_0_8_2
*1491 FILLER_0_8_203
*1492 FILLER_0_8_207
*1493 FILLER_0_8_229
*1494 FILLER_0_8_265
*1495 FILLER_0_8_267
*1496 FILLER_0_8_32
*1497 FILLER_0_8_34
*1498 FILLER_0_8_44
*1499 FILLER_0_8_48
*1500 FILLER_0_8_50
*1501 FILLER_0_8_65
*1502 FILLER_0_9_113
*1503 FILLER_0_9_122
*1504 FILLER_0_9_138
*1505 FILLER_0_9_142
*1506 FILLER_0_9_158
*1507 FILLER_0_9_166
*1508 FILLER_0_9_170
*1509 FILLER_0_9_172
*1510 FILLER_0_9_179
*1511 FILLER_0_9_187
*1512 FILLER_0_9_189
*1513 FILLER_0_9_2
*1514 FILLER_0_9_204
*1515 FILLER_0_9_260
*1516 FILLER_0_9_289
*1517 FILLER_0_9_293
*1518 FILLER_0_9_43
*1519 FILLER_0_9_51
*1520 FILLER_0_9_53
*1521 FILLER_0_9_64
*1522 FILLER_0_9_68
*1523 FILLER_0_9_72
*1524 FILLER_0_9_79
*1525 FILLER_0_9_99
*1526 PHY_EDGE_ROW_0_Left_37
*1527 PHY_EDGE_ROW_0_Right_0
*1528 PHY_EDGE_ROW_10_Left_47
*1529 PHY_EDGE_ROW_10_Right_10
*1530 PHY_EDGE_ROW_11_Left_48
*1531 PHY_EDGE_ROW_11_Right_11
*1532 PHY_EDGE_ROW_12_Left_49
*1533 PHY_EDGE_ROW_12_Right_12
*1534 PHY_EDGE_ROW_13_Left_50
*1535 PHY_EDGE_ROW_13_Right_13
*1536 PHY_EDGE_ROW_14_Left_51
*1537 PHY_EDGE_ROW_14_Right_14
*1538 PHY_EDGE_ROW_15_Left_52
*1539 PHY_EDGE_ROW_15_Right_15
*1540 PHY_EDGE_ROW_16_Left_53
*1541 PHY_EDGE_ROW_16_Right_16
*1542 PHY_EDGE_ROW_17_Left_54
*1543 PHY_EDGE_ROW_17_Right_17
*1544 PHY_EDGE_ROW_18_Left_55
*1545 PHY_EDGE_ROW_18_Right_18
*1546 PHY_EDGE_ROW_19_Left_56
*1547 PHY_EDGE_ROW_19_Right_19
*1548 PHY_EDGE_ROW_1_Left_38
*1549 PHY_EDGE_ROW_1_Right_1
*1550 PHY_EDGE_ROW_20_Left_57
*1551 PHY_EDGE_ROW_20_Right_20
*1552 PHY_EDGE_ROW_21_Left_58
*1553 PHY_EDGE_ROW_21_Right_21
*1554 PHY_EDGE_ROW_22_Left_59
*1555 PHY_EDGE_ROW_22_Right_22
*1556 PHY_EDGE_ROW_23_Left_60
*1557 PHY_EDGE_ROW_23_Right_23
*1558 PHY_EDGE_ROW_24_Left_61
*1559 PHY_EDGE_ROW_24_Right_24
*1560 PHY_EDGE_ROW_25_Left_62
*1561 PHY_EDGE_ROW_25_Right_25
*1562 PHY_EDGE_ROW_26_Left_63
*1563 PHY_EDGE_ROW_26_Right_26
*1564 PHY_EDGE_ROW_27_Left_64
*1565 PHY_EDGE_ROW_27_Right_27
*1566 PHY_EDGE_ROW_28_Left_65
*1567 PHY_EDGE_ROW_28_Right_28
*1568 PHY_EDGE_ROW_29_Left_66
*1569 PHY_EDGE_ROW_29_Right_29
*1570 PHY_EDGE_ROW_2_Left_39
*1571 PHY_EDGE_ROW_2_Right_2
*1572 PHY_EDGE_ROW_30_Left_67
*1573 PHY_EDGE_ROW_30_Right_30
*1574 PHY_EDGE_ROW_31_Left_68
*1575 PHY_EDGE_ROW_31_Right_31
*1576 PHY_EDGE_ROW_32_Left_69
*1577 PHY_EDGE_ROW_32_Right_32
*1578 PHY_EDGE_ROW_33_Left_70
*1579 PHY_EDGE_ROW_33_Right_33
*1580 PHY_EDGE_ROW_34_Left_71
*1581 PHY_EDGE_ROW_34_Right_34
*1582 PHY_EDGE_ROW_35_Left_72
*1583 PHY_EDGE_ROW_35_Right_35
*1584 PHY_EDGE_ROW_36_Left_73
*1585 PHY_EDGE_ROW_36_Right_36
*1586 PHY_EDGE_ROW_3_Left_40
*1587 PHY_EDGE_ROW_3_Right_3
*1588 PHY_EDGE_ROW_4_Left_41
*1589 PHY_EDGE_ROW_4_Right_4
*1590 PHY_EDGE_ROW_5_Left_42
*1591 PHY_EDGE_ROW_5_Right_5
*1592 PHY_EDGE_ROW_6_Left_43