*SPEF "ieee 1481-1999"
*DESIGN "blinker"
*DATE "11:11:11 Fri 11 11, 1111"
*VENDOR "OpenRCX"
*PROGRAM "Parallel Extraction"
*VERSION "1.0"
*DESIGN_FLOW "NAME_SCOPE LOCAL" "PIN_CAP NONE"
*DIVIDER /
*DELIMITER :
*BUS_DELIMITER []
*T_UNIT 1 NS
*C_UNIT 1 PF
*R_UNIT 1 OHM
*L_UNIT 1 HENRY

*NAME_MAP
*1 io_out[0]
*2 io_out[1]
*3 io_out[2]
*4 rst_n
*7 wb_clk_i
*8 LFSR\[0\]
*9 LFSR\[1\]
*10 LFSR\[2\]
*11 LFSR\[3\]
*12 LFSR\[4\]
*13 LFSR\[5\]
*14 LFSR\[6\]
*15 OP_reg
*16 PC\[0\]
*17 PC\[1\]
*18 PC\[2\]
*19 PC\[3\]
*20 PC\[4\]
*21 PC\[5\]
*22 _000_
*23 _001_
*24 _002_
*25 _003_
*26 _004_
*27 _005_
*28 _006_
*29 _007_
*30 _008_
*31 _009_
*32 _010_
*33 _011_
*34 _012_
*35 _013_
*36 _014_
*37 _015_
*38 _016_
*39 _017_
*40 _018_
*41 _019_
*42 _020_
*43 _021_
*44 _022_
*45 _023_
*46 _024_
*47 _025_
*48 _026_
*49 _027_
*50 _028_
*51 _029_
*52 _030_
*53 _031_
*54 _032_
*55 _033_
*56 _034_
*57 _035_
*58 _036_
*59 _037_
*60 _038_
*61 _039_
*62 _040_
*63 _041_
*64 _042_
*65 _043_
*66 _044_
*67 _045_
*68 _046_
*69 _047_
*70 _048_
*71 _049_
*72 _050_
*73 _051_
*74 _052_
*75 _053_
*76 _054_
*77 _055_
*78 _056_
*79 _057_
*80 _058_
*81 _059_
*82 _060_
*83 _061_
*84 _062_
*85 _063_
*86 _064_
*87 _065_
*88 _066_
*89 _067_
*90 _068_
*91 _069_
*92 _070_
*93 _071_
*94 _072_
*95 _073_
*96 _074_
*97 _075_
*98 _076_
*99 _077_
*100 _078_
*101 _079_
*102 _080_
*103 _081_
*104 _082_
*105 _083_
*106 _084_
*107 _085_
*108 _086_
*109 _087_
*110 _088_
*111 _089_
*112 _090_
*113 _091_
*114 _092_
*115 _093_
*116 _094_
*117 _095_
*118 _096_
*119 _097_
*120 _098_
*121 _099_
*122 _100_
*123 _101_
*124 _102_
*125 _103_
*126 _104_
*127 _105_
*128 _106_
*129 _107_
*130 _108_
*131 _109_
*132 _110_
*133 _111_
*134 _112_
*135 _113_
*136 _114_
*137 _115_
*138 _116_
*139 _117_
*140 _118_
*141 _119_
*142 _120_
*143 _121_
*144 _122_
*145 _123_
*146 _124_
*147 _125_
*148 _126_
*149 _127_
*150 _128_
*151 _129_
*152 _130_
*153 _131_
*154 _132_
*155 _133_
*156 _134_
*157 _135_
*158 _136_
*159 _137_
*160 _138_
*161 _139_
*162 _140_
*163 _141_
*164 _142_
*165 _143_
*166 _144_
*167 _145_
*168 _146_
*169 _147_
*170 _148_
*171 _149_
*172 _150_
*173 _151_
*174 _152_
*175 _153_
*176 _154_
*177 _155_
*178 _156_
*179 _157_
*180 _158_
*181 _159_
*182 _160_
*183 _161_
*184 _162_
*185 _163_
*186 _164_
*187 _165_
*188 _166_
*189 _167_
*190 _168_
*191 _169_
*192 _170_
*193 _171_
*194 _172_
*195 _173_
*196 _174_
*197 _175_
*198 _176_
*199 _177_
*200 _178_
*201 _179_
*202 _180_
*203 _181_
*204 _182_
*205 _183_
*206 _184_
*207 _185_
*208 _186_
*209 _187_
*210 _188_
*211 _189_
*212 _190_
*213 _191_
*214 _192_
*215 _193_
*216 _194_
*217 _195_
*218 _196_
*219 _197_
*220 _198_
*221 _199_
*222 _200_
*223 _201_
*224 _202_
*225 _203_
*226 _204_
*227 _205_
*228 _206_
*229 _207_
*230 _208_
*231 _209_
*232 _210_
*233 _211_
*234 _212_
*235 _213_
*236 _214_
*237 _215_
*238 _216_
*239 _217_
*240 _218_
*241 _219_
*242 _220_
*243 _221_
*244 _222_
*245 _223_
*246 _224_
*247 _225_
*248 _226_
*249 _227_
*250 _228_
*251 _229_
*252 _230_
*253 _231_
*254 _232_
*255 _233_
*256 _234_
*257 _235_
*258 _236_
*259 _237_
*260 _238_
*261 _239_
*262 _240_
*263 _241_
*264 _242_
*265 _243_
*266 _244_
*267 _245_
*268 _246_
*269 _247_
*270 _248_
*271 _249_
*272 _250_
*273 _251_
*274 _252_
*275 _253_
*276 _254_
*277 _255_
*278 _256_
*279 _257_
*280 _258_
*281 _259_
*282 _260_
*283 _261_
*284 _262_
*285 _263_
*286 _264_
*287 _265_
*288 _266_
*289 _267_
*290 _268_
*291 _269_
*292 _270_
*293 _271_
*294 _272_
*295 _273_
*296 _274_
*297 _275_
*298 _276_
*299 _277_
*300 _278_
*301 _279_
*302 _280_
*303 _281_
*304 _282_
*305 _283_
*306 _284_
*307 _285_
*308 _286_
*309 _287_
*310 _288_
*311 _289_
*312 _290_
*313 _291_
*314 _292_
*315 _293_
*316 _294_
*317 _295_
*318 _296_
*319 _297_
*320 _298_
*321 _299_
*322 _300_
*323 _301_
*324 _302_
*325 _303_
*326 _304_
*327 _305_
*328 _306_
*329 _307_
*330 _308_
*331 _309_
*332 _310_
*333 _311_
*334 _312_
*335 _313_
*336 _314_
*337 _315_
*338 _316_
*339 _317_
*340 _318_
*341 _319_
*342 _320_
*343 _321_
*344 _322_
*345 _323_
*346 _324_
*347 _325_
*348 _326_
*349 _327_
*350 _328_
*351 _329_
*352 _330_
*353 _331_
*354 _332_
*355 _333_
*356 _334_
*357 _335_
*358 _336_
*359 _337_
*360 _338_
*361 _339_
*362 _340_
*363 _341_
*364 _342_
*365 _343_
*366 _344_
*367 _345_
*368 _346_
*369 _347_
*370 _348_
*371 _349_
*372 _350_
*373 _351_
*374 _352_
*375 _353_
*376 _354_
*377 _355_
*378 _356_
*379 _357_
*380 _358_
*381 _359_
*382 _360_
*383 _361_
*384 _362_
*385 _363_
*386 _364_
*387 _365_
*388 _366_
*389 _367_
*390 _368_
*391 _369_
*392 _370_
*393 _371_
*394 _372_
*395 _373_
*396 _374_
*397 _375_
*398 _376_
*399 _377_
*400 _378_
*401 _379_
*402 _380_
*403 _381_
*404 _382_
*405 _383_
*406 _384_
*407 _385_
*408 _386_
*409 _387_
*410 _388_
*411 _389_
*412 _390_
*413 _391_
*414 _392_
*415 _393_
*416 _394_
*417 _395_
*418 _396_
*419 _397_
*420 _398_
*421 _399_
*422 _400_
*423 _401_
*424 _402_
*425 _403_
*426 _404_
*427 _405_
*428 _406_
*429 _407_
*430 _408_
*431 _409_
*432 _410_
*433 _411_
*434 _412_
*435 _413_
*436 _414_
*437 _415_
*438 _416_
*439 _417_
*440 _418_
*441 _419_
*442 _420_
*443 _421_
*444 _422_
*445 _423_
*446 _424_
*447 _425_
*448 _426_
*449 _427_
*450 clknet_0_wb_clk_i
*451 clknet_3_0__leaf_wb_clk_i
*452 clknet_3_1__leaf_wb_clk_i
*453 clknet_3_2__leaf_wb_clk_i
*454 clknet_3_3__leaf_wb_clk_i
*455 clknet_3_4__leaf_wb_clk_i
*456 clknet_3_5__leaf_wb_clk_i
*457 clknet_3_6__leaf_wb_clk_i
*458 clknet_3_7__leaf_wb_clk_i
*459 clock_div\[0\]
*460 clock_div\[1\]
*461 clock_div\[2\]
*462 clock_div\[3\]
*463 clock_div\[4\]
*464 clock_div\[5\]
*465 clock_div\[6\]
*466 clock_div\[7\]
*467 clock_div\[8\]
*468 counter\[0\]
*469 counter\[10\]
*470 counter\[11\]
*471 counter\[12\]
*472 counter\[13\]
*473 counter\[14\]
*474 counter\[15\]
*475 counter\[16\]
*476 counter\[17\]
*477 counter\[18\]
*478 counter\[19\]
*479 counter\[1\]
*480 counter\[20\]
*481 counter\[21\]
*482 counter\[22\]
*483 counter\[3\]
*484 counter\[4\]
*485 counter\[5\]
*486 counter\[6\]
*487 counter\[7\]
*488 counter\[8\]
*489 counter\[9\]
*490 just_inc
*491 just_rst
*492 master_clk_div\[0\]
*493 master_clk_div\[1\]
*494 master_clk_div\[2\]
*495 master_clk_div\[3\]
*496 master_clk_div\[4\]
*497 master_clk_div\[5\]
*498 master_clk_div\[6\]
*499 net1
*500 net10
*501 net11
*502 net2
*503 net3
*504 net4
*505 net5
*506 net6
*507 net7
*508 net8
*509 net9
*510 prev_clk_div
*511 rhythm_LFSR\[0\]
*512 rhythm_LFSR\[1\]
*513 rhythm_LFSR\[2\]
*514 rhythm_LFSR\[3\]
*515 tempo_LFSR\[0\]
*516 tempo_LFSR\[1\]
*517 tempo_LFSR\[2\]
*518 tempo_LFSR\[3\]
*519 tune_ROM\[0\]
*520 tune_ROM\[1\]
*521 tune_ROM\[2\]
*522 tune_ROM\[3\]
*523 tune_ROM\[4\]
*524 tune_ROM\[5\]
*525 ANTENNA__430__I
*526 ANTENNA__439__B
*527 ANTENNA__444__I
*528 ANTENNA__450__B
*529 ANTENNA__457__A2
*530 ANTENNA__457__A3
*531 ANTENNA__458__A1
*532 ANTENNA__470__A1
*533 ANTENNA__481__A2
*534 ANTENNA__490__A1
*535 ANTENNA__567__A1
*536 ANTENNA__581__I
*537 ANTENNA__599__A1
*538 ANTENNA__603__I
*539 ANTENNA__606__A1
*540 ANTENNA__674__A1
*541 ANTENNA__686__A1
*542 ANTENNA__689__I
*543 ANTENNA__695__I
*544 ANTENNA__724__I
*545 ANTENNA__767__I
*546 ANTENNA__780__C
*547 ANTENNA__783__B
*548 ANTENNA__787__B
*549 ANTENNA__795__A1
*550 ANTENNA__822__C
*551 ANTENNA__830__A1
*552 ANTENNA__835__A1
*553 ANTENNA__837__A1
*554 ANTENNA__859__CLK
*555 ANTENNA__860__CLK
*556 ANTENNA__861__CLK
*557 ANTENNA__862__CLK
*558 ANTENNA__889__CLK
*559 ANTENNA__890__CLK
*560 ANTENNA__891__CLK
*561 ANTENNA__912__CLK
*562 ANTENNA_clkbuf_0_wb_clk_i_I
*563 ANTENNA_clkbuf_3_0__f_wb_clk_i_I
*564 ANTENNA_clkbuf_3_1__f_wb_clk_i_I
*565 ANTENNA_clkbuf_3_2__f_wb_clk_i_I
*566 ANTENNA_clkbuf_3_3__f_wb_clk_i_I
*567 ANTENNA_clkbuf_3_4__f_wb_clk_i_I
*568 ANTENNA_clkbuf_3_5__f_wb_clk_i_I
*569 ANTENNA_clkbuf_3_6__f_wb_clk_i_I
*570 ANTENNA_clkbuf_3_7__f_wb_clk_i_I
*571 ANTENNA_input1_I
*572 ANTENNA_rebuffer1_I
*573 FILLER_0_0_104
*574 FILLER_0_0_128
*575 FILLER_0_0_167
*576 FILLER_0_0_169
*577 FILLER_0_0_2
*578 FILLER_0_0_201
*579 FILLER_0_0_203
*580 FILLER_0_0_240
*581 FILLER_0_0_244
*582 FILLER_0_0_280
*583 FILLER_0_0_284
*584 FILLER_0_0_292
*585 FILLER_0_0_294
*586 FILLER_0_0_36
*587 FILLER_0_0_40
*588 FILLER_0_0_65
*589 FILLER_0_0_67
*590 FILLER_0_0_70
*591 FILLER_0_10_100
*592 FILLER_0_10_102
*593 FILLER_0_10_149
*594 FILLER_0_10_153
*595 FILLER_0_10_156
*596 FILLER_0_10_173
*597 FILLER_0_10_177
*598 FILLER_0_10_195
*599 FILLER_0_10_2
*600 FILLER_0_10_203
*601 FILLER_0_10_234
*602 FILLER_0_10_242
*603 FILLER_0_10_244
*604 FILLER_0_10_261
*605 FILLER_0_10_265
*606 FILLER_0_10_34
*607 FILLER_0_10_4
*608 FILLER_0_10_58
*609 FILLER_0_10_92
*610 FILLER_0_11_10
*611 FILLER_0_11_2
*612 FILLER_0_11_208
*613 FILLER_0_11_212
*614 FILLER_0_11_216
*615 FILLER_0_11_218
*616 FILLER_0_11_232
*617 FILLER_0_11_264
*618 FILLER_0_11_266
*619 FILLER_0_11_275
*620 FILLER_0_11_279
*621 FILLER_0_11_282
*622 FILLER_0_11_290
*623 FILLER_0_11_294
*624 FILLER_0_11_42
*625 FILLER_0_11_52
*626 FILLER_0_11_72
*627 FILLER_0_11_76
*628 FILLER_0_11_78
*629 FILLER_0_11_87
*630 FILLER_0_11_89
*631 FILLER_0_12_10
*632 FILLER_0_12_102
*633 FILLER_0_12_104
*634 FILLER_0_12_107
*635 FILLER_0_12_109
*636 FILLER_0_12_14
*637 FILLER_0_12_140
*638 FILLER_0_12_148
*639 FILLER_0_12_16
*640 FILLER_0_12_177
*641 FILLER_0_12_179
*642 FILLER_0_12_195
*643 FILLER_0_12_199
*644 FILLER_0_12_2
*645 FILLER_0_12_235
*646 FILLER_0_12_255
*647 FILLER_0_12_263
*648 FILLER_0_12_265
*649 FILLER_0_12_47
*650 FILLER_0_12_98
*651 FILLER_0_13_112
*652 FILLER_0_13_116
*653 FILLER_0_13_132
*654 FILLER_0_13_136
*655 FILLER_0_13_154
*656 FILLER_0_13_158
*657 FILLER_0_13_160
*658 FILLER_0_13_173
*659 FILLER_0_13_177
*660 FILLER_0_13_18
*661 FILLER_0_13_194
*662 FILLER_0_13_196
*663 FILLER_0_13_2
*664 FILLER_0_13_202
*665 FILLER_0_13_206
*666 FILLER_0_13_212
*667 FILLER_0_13_26
*668 FILLER_0_13_278
*669 FILLER_0_13_290
*670 FILLER_0_13_294
*671 FILLER_0_13_30
*672 FILLER_0_13_62
*673 FILLER_0_13_96
*674 FILLER_0_14_103
*675 FILLER_0_14_107
*676 FILLER_0_14_111
*677 FILLER_0_14_127
*678 FILLER_0_14_133
*679 FILLER_0_14_206
*680 FILLER_0_14_222
*681 FILLER_0_14_243
*682 FILLER_0_14_253
*683 FILLER_0_14_286
*684 FILLER_0_14_294
*685 FILLER_0_14_31
*686 FILLER_0_14_43
*687 FILLER_0_14_51
*688 FILLER_0_15_115
*689 FILLER_0_15_142
*690 FILLER_0_15_146
*691 FILLER_0_15_199
*692 FILLER_0_15_2
*693 FILLER_0_15_207
*694 FILLER_0_15_209
*695 FILLER_0_15_212
*696 FILLER_0_15_216
*697 FILLER_0_15_218
*698 FILLER_0_15_225
*699 FILLER_0_15_247
*700 FILLER_0_15_255
*701 FILLER_0_15_279
*702 FILLER_0_15_290
*703 FILLER_0_15_294
*704 FILLER_0_15_34
*705 FILLER_0_15_36
*706 FILLER_0_15_66
*707 FILLER_0_15_72
*708 FILLER_0_15_80
*709 FILLER_0_15_84
*710 FILLER_0_16_107
*711 FILLER_0_16_119
*712 FILLER_0_16_162
*713 FILLER_0_16_170
*714 FILLER_0_16_174
*715 FILLER_0_16_177
*716 FILLER_0_16_193
*717 FILLER_0_16_195
*718 FILLER_0_16_2
*719 FILLER_0_16_210
*720 FILLER_0_16_224
*721 FILLER_0_16_228
*722 FILLER_0_16_230
*723 FILLER_0_16_243
*724 FILLER_0_16_259
*725 FILLER_0_16_263
*726 FILLER_0_16_265
*727 FILLER_0_16_37
*728 FILLER_0_16_41
*729 FILLER_0_16_43
*730 FILLER_0_16_46
*731 FILLER_0_16_62
*732 FILLER_0_16_70
*733 FILLER_0_17_10
*734 FILLER_0_17_104
*735 FILLER_0_17_118
*736 FILLER_0_17_14
*737 FILLER_0_17_2
*738 FILLER_0_17_241
*739 FILLER_0_17_245
*740 FILLER_0_17_261
*741 FILLER_0_17_277
*742 FILLER_0_17_279
*743 FILLER_0_17_282
*744 FILLER_0_17_290
*745 FILLER_0_17_294
*746 FILLER_0_17_44
*747 FILLER_0_17_46
*748 FILLER_0_17_53
*749 FILLER_0_17_78
*750 FILLER_0_17_94
*751 FILLER_0_18_102
*752 FILLER_0_18_104
*753 FILLER_0_18_107
*754 FILLER_0_18_123
*755 FILLER_0_18_127
*756 FILLER_0_18_137
*757 FILLER_0_18_139
*758 FILLER_0_18_142
*759 FILLER_0_18_155
*760 FILLER_0_18_160
*761 FILLER_0_18_168
*762 FILLER_0_18_172
*763 FILLER_0_18_174
*764 FILLER_0_18_177
*765 FILLER_0_18_185
*766 FILLER_0_18_241
*767 FILLER_0_18_256
*768 FILLER_0_18_287
*769 FILLER_0_18_31
*770 FILLER_0_18_65
*771 FILLER_0_18_90
*772 FILLER_0_18_98
*773 FILLER_0_19_103
*774 FILLER_0_19_150
*775 FILLER_0_19_183
*776 FILLER_0_19_191
*777 FILLER_0_19_2
*778 FILLER_0_19_200
*779 FILLER_0_19_208
*780 FILLER_0_19_212
*781 FILLER_0_19_214
*782 FILLER_0_19_279
*783 FILLER_0_19_282
*784 FILLER_0_19_290
*785 FILLER_0_19_294
*786 FILLER_0_19_34
*787 FILLER_0_1_128
*788 FILLER_0_1_136
*789 FILLER_0_1_156
*790 FILLER_0_1_160
*791 FILLER_0_1_206
*792 FILLER_0_1_212
*793 FILLER_0_1_216
*794 FILLER_0_1_275
*795 FILLER_0_1_279
*796 FILLER_0_1_290
*797 FILLER_0_1_294
*798 FILLER_0_1_90
*799 FILLER_0_20_104
*800 FILLER_0_20_107
*801 FILLER_0_20_115
*802 FILLER_0_20_119
*803 FILLER_0_20_121
*804 FILLER_0_20_124
*805 FILLER_0_20_140
*806 FILLER_0_20_150
*807 FILLER_0_20_154
*808 FILLER_0_20_170
*809 FILLER_0_20_174
*810 FILLER_0_20_177
*811 FILLER_0_20_215
*812 FILLER_0_20_255
*813 FILLER_0_20_287
*814 FILLER_0_20_31
*815 FILLER_0_20_37
*816 FILLER_0_20_45
*817 FILLER_0_20_61
*818 FILLER_0_20_79
*819 FILLER_0_20_90
*820 FILLER_0_21_103
*821 FILLER_0_21_111
*822 FILLER_0_21_130
*823 FILLER_0_21_142
*824 FILLER_0_21_144
*825 FILLER_0_21_161
*826 FILLER_0_21_169
*827 FILLER_0_21_188
*828 FILLER_0_21_190
*829 FILLER_0_21_224
*830 FILLER_0_21_228
*831 FILLER_0_21_264
*832 FILLER_0_21_282
*833 FILLER_0_21_290
*834 FILLER_0_21_294
*835 FILLER_0_21_39
*836 FILLER_0_21_47
*837 FILLER_0_21_63
*838 FILLER_0_22_118
*839 FILLER_0_22_126
*840 FILLER_0_22_136
*841 FILLER_0_22_140
*842 FILLER_0_22_154
*843 FILLER_0_22_170
*844 FILLER_0_22_174
*845 FILLER_0_22_177
*846 FILLER_0_22_181
*847 FILLER_0_22_185
*848 FILLER_0_22_187
*849 FILLER_0_22_2
*850 FILLER_0_22_236
*851 FILLER_0_22_244
*852 FILLER_0_22_247
*853 FILLER_0_22_279
*854 FILLER_0_22_33
*855 FILLER_0_22_6
*856 FILLER_0_22_74
*857 FILLER_0_22_93
*858 FILLER_0_22_97
*859 FILLER_0_23_10
*860 FILLER_0_23_130
*861 FILLER_0_23_132
*862 FILLER_0_23_139
*863 FILLER_0_23_14
*864 FILLER_0_23_142
*865 FILLER_0_23_144
*866 FILLER_0_23_153
*867 FILLER_0_23_157
*868 FILLER_0_23_16
*869 FILLER_0_23_164
*870 FILLER_0_23_2
*871 FILLER_0_23_212
*872 FILLER_0_23_254
*873 FILLER_0_23_270
*874 FILLER_0_23_278
*875 FILLER_0_23_282
*876 FILLER_0_23_290
*877 FILLER_0_23_294
*878 FILLER_0_23_40
*879 FILLER_0_23_56
*880 FILLER_0_23_64
*881 FILLER_0_23_68
*882 FILLER_0_23_72
*883 FILLER_0_23_80
*884 FILLER_0_23_87
*885 FILLER_0_23_95
*886 FILLER_0_24_107
*887 FILLER_0_24_177
*888 FILLER_0_24_2
*889 FILLER_0_24_214
*890 FILLER_0_24_239
*891 FILLER_0_24_243
*892 FILLER_0_24_247
*893 FILLER_0_24_279
*894 FILLER_0_24_33
*895 FILLER_0_24_45
*896 FILLER_0_24_53
*897 FILLER_0_25_105
*898 FILLER_0_25_107
*899 FILLER_0_25_133
*900 FILLER_0_25_137
*901 FILLER_0_25_139
*902 FILLER_0_25_203
*903 FILLER_0_25_220
*904 FILLER_0_25_257
*905 FILLER_0_25_273
*906 FILLER_0_25_277
*907 FILLER_0_25_279
*908 FILLER_0_25_282
*909 FILLER_0_25_290
*910 FILLER_0_25_294
*911 FILLER_0_25_47
*912 FILLER_0_25_55
*913 FILLER_0_25_59
*914 FILLER_0_25_69
*915 FILLER_0_25_72
*916 FILLER_0_25_74
*917 FILLER_0_26_116
*918 FILLER_0_26_118
*919 FILLER_0_26_150
*920 FILLER_0_26_154
*921 FILLER_0_26_167
*922 FILLER_0_26_171
*923 FILLER_0_26_177
*924 FILLER_0_26_179
*925 FILLER_0_26_18
*926 FILLER_0_26_2
*927 FILLER_0_26_244
*928 FILLER_0_26_253
*929 FILLER_0_26_257
*930 FILLER_0_26_26
*931 FILLER_0_26_28
*932 FILLER_0_26_289
*933 FILLER_0_26_293
*934 FILLER_0_26_37
*935 FILLER_0_26_45
*936 FILLER_0_26_49
*937 FILLER_0_26_79
*938 FILLER_0_26_83
*939 FILLER_0_26_99
*940 FILLER_0_27_110
*941 FILLER_0_27_112
*942 FILLER_0_27_130
*943 FILLER_0_27_138
*944 FILLER_0_27_142
*945 FILLER_0_27_161
*946 FILLER_0_27_163
*947 FILLER_0_27_18
*948 FILLER_0_27_199
*949 FILLER_0_27_2
*950 FILLER_0_27_203
*951 FILLER_0_27_212
*952 FILLER_0_27_216
*953 FILLER_0_27_22
*954 FILLER_0_27_253
*955 FILLER_0_27_269
*956 FILLER_0_27_277
*957 FILLER_0_27_279
*958 FILLER_0_27_282
*959 FILLER_0_27_290
*960 FILLER_0_27_294
*961 FILLER_0_27_50
*962 FILLER_0_27_72
*963 FILLER_0_27_80
*964 FILLER_0_27_84
*965 FILLER_0_28_102
*966 FILLER_0_28_104
*967 FILLER_0_28_139
*968 FILLER_0_28_147
*969 FILLER_0_28_151
*970 FILLER_0_28_172
*971 FILLER_0_28_174
*972 FILLER_0_28_177
*973 FILLER_0_28_185
*974 FILLER_0_28_2
*975 FILLER_0_28_22
*976 FILLER_0_28_236
*977 FILLER_0_28_240
*978 FILLER_0_28_244
*979 FILLER_0_28_247
*980 FILLER_0_28_279
*981 FILLER_0_28_37
*982 FILLER_0_28_45
*983 FILLER_0_28_78
*984 FILLER_0_29_101
*985 FILLER_0_29_139
*986 FILLER_0_29_142
*987 FILLER_0_29_191
*988 FILLER_0_29_207
*989 FILLER_0_29_209
*990 FILLER_0_29_220
*991 FILLER_0_29_252
*992 FILLER_0_29_268
*993 FILLER_0_29_276
*994 FILLER_0_29_282
*995 FILLER_0_29_290
*996 FILLER_0_29_294
*997 FILLER_0_29_31
*998 FILLER_0_29_62
*999 FILLER_0_29_72
*1000 FILLER_0_29_74
*1001 FILLER_0_29_79
*1002 FILLER_0_29_87
*1003 FILLER_0_2_104
*1004 FILLER_0_2_148
*1005 FILLER_0_2_177
*1006 FILLER_0_2_187
*1007 FILLER_0_2_189
*1008 FILLER_0_2_198
*1009 FILLER_0_2_2
*1010 FILLER_0_2_239
*1011 FILLER_0_2_243
*1012 FILLER_0_2_255
*1013 FILLER_0_2_257
*1014 FILLER_0_2_37
*1015 FILLER_0_2_39
*1016 FILLER_0_2_6
*1017 FILLER_0_2_8
*1018 FILLER_0_30_103
*1019 FILLER_0_30_107
*1020 FILLER_0_30_111
*1021 FILLER_0_30_113
*1022 FILLER_0_30_172
*1023 FILLER_0_30_174
*1024 FILLER_0_30_177
*1025 FILLER_0_30_185
*1026 FILLER_0_30_189
*1027 FILLER_0_30_211
*1028 FILLER_0_30_243
*1029 FILLER_0_30_247
*1030 FILLER_0_30_279
*1031 FILLER_0_30_37
*1032 FILLER_0_30_52
*1033 FILLER_0_30_82
*1034 FILLER_0_30_90
*1035 FILLER_0_30_94
*1036 FILLER_0_31_107
*1037 FILLER_0_31_139
*1038 FILLER_0_31_142
*1039 FILLER_0_31_158
*1040 FILLER_0_31_162
*1041 FILLER_0_31_164
*1042 FILLER_0_31_173
*1043 FILLER_0_31_18
*1044 FILLER_0_31_2
*1045 FILLER_0_31_205
*1046 FILLER_0_31_209
*1047 FILLER_0_31_212
*1048 FILLER_0_31_276
*1049 FILLER_0_31_282
*1050 FILLER_0_31_290
*1051 FILLER_0_31_294
*1052 FILLER_0_31_36
*1053 FILLER_0_31_68
*1054 FILLER_0_31_72
*1055 FILLER_0_31_76
*1056 FILLER_0_32_102
*1057 FILLER_0_32_104
*1058 FILLER_0_32_107
*1059 FILLER_0_32_171
*1060 FILLER_0_32_177
*1061 FILLER_0_32_2
*1062 FILLER_0_32_241
*1063 FILLER_0_32_247
*1064 FILLER_0_32_279
*1065 FILLER_0_32_34
*1066 FILLER_0_32_37
*1067 FILLER_0_32_53
*1068 FILLER_0_32_90
*1069 FILLER_0_32_98
*1070 FILLER_0_33_136
*1071 FILLER_0_33_142
*1072 FILLER_0_33_2
*1073 FILLER_0_33_206
*1074 FILLER_0_33_212
*1075 FILLER_0_33_276
*1076 FILLER_0_33_282
*1077 FILLER_0_33_290
*1078 FILLER_0_33_294
*1079 FILLER_0_33_66
*1080 FILLER_0_33_72
*1081 FILLER_0_34_101
*1082 FILLER_0_34_107
*1083 FILLER_0_34_171
*1084 FILLER_0_34_177
*1085 FILLER_0_34_2
*1086 FILLER_0_34_241
*1087 FILLER_0_34_247
*1088 FILLER_0_34_279
*1089 FILLER_0_34_34
*1090 FILLER_0_34_37
*1091 FILLER_0_35_136
*1092 FILLER_0_35_142
*1093 FILLER_0_35_2
*1094 FILLER_0_35_206
*1095 FILLER_0_35_212
*1096 FILLER_0_35_276
*1097 FILLER_0_35_282
*1098 FILLER_0_35_290
*1099 FILLER_0_35_294
*1100 FILLER_0_35_66
*1101 FILLER_0_35_72
*1102 FILLER_0_36_104
*1103 FILLER_0_36_138
*1104 FILLER_0_36_172
*1105 FILLER_0_36_2
*1106 FILLER_0_36_206
*1107 FILLER_0_36_240
*1108 FILLER_0_36_274
*1109 FILLER_0_36_290
*1110 FILLER_0_36_294
*1111 FILLER_0_36_36
*1112 FILLER_0_36_70
*1113 FILLER_0_3_120
*1114 FILLER_0_3_150
*1115 FILLER_0_3_169
*1116 FILLER_0_3_173
*1117 FILLER_0_3_19
*1118 FILLER_0_3_195
*1119 FILLER_0_3_2
*1120 FILLER_0_3_222
*1121 FILLER_0_3_238
*1122 FILLER_0_3_242
*1123 FILLER_0_3_249
*1124 FILLER_0_3_259
*1125 FILLER_0_3_276
*1126 FILLER_0_3_290
*1127 FILLER_0_3_294
*1128 FILLER_0_3_4
*1129 FILLER_0_3_51
*1130 FILLER_0_3_72
*1131 FILLER_0_4_10
*1132 FILLER_0_4_102
*1133 FILLER_0_4_104
*1134 FILLER_0_4_107
*1135 FILLER_0_4_109
*1136 FILLER_0_4_14
*1137 FILLER_0_4_16
*1138 FILLER_0_4_162
*1139 FILLER_0_4_166
*1140 FILLER_0_4_174
*1141 FILLER_0_4_177
*1142 FILLER_0_4_179
*1143 FILLER_0_4_2
*1144 FILLER_0_4_21
*1145 FILLER_0_4_240
*1146 FILLER_0_4_244
*1147 FILLER_0_4_25
*1148 FILLER_0_4_255
*1149 FILLER_0_4_293
*1150 FILLER_0_4_50
*1151 FILLER_0_4_54
*1152 FILLER_0_4_71
*1153 FILLER_0_4_80
*1154 FILLER_0_5_113
*1155 FILLER_0_5_194
*1156 FILLER_0_5_2
*1157 FILLER_0_5_201
*1158 FILLER_0_5_209
*1159 FILLER_0_5_212
*1160 FILLER_0_5_243
*1161 FILLER_0_5_247
*1162 FILLER_0_5_277
*1163 FILLER_0_5_279
*1164 FILLER_0_5_288
*1165 FILLER_0_5_292
*1166 FILLER_0_5_294
*1167 FILLER_0_5_41
*1168 FILLER_0_5_45
*1169 FILLER_0_5_77
*1170 FILLER_0_6_164
*1171 FILLER_0_6_172
*1172 FILLER_0_6_174
*1173 FILLER_0_6_177
*1174 FILLER_0_6_189
*1175 FILLER_0_6_191
*1176 FILLER_0_6_2
*1177 FILLER_0_6_233
*1178 FILLER_0_6_242
*1179 FILLER_0_6_244
*1180 FILLER_0_6_247
*1181 FILLER_0_6_263
*1182 FILLER_0_6_265
*1183 FILLER_0_6_33
*1184 FILLER_0_6_57
*1185 FILLER_0_6_6
*1186 FILLER_0_6_61
*1187 FILLER_0_6_8
*1188 FILLER_0_7_2
*1189 FILLER_0_7_205
*1190 FILLER_0_7_207
*1191 FILLER_0_7_218
*1192 FILLER_0_7_220
*1193 FILLER_0_7_227
*1194 FILLER_0_7_229
*1195 FILLER_0_7_290
*1196 FILLER_0_7_294
*1197 FILLER_0_7_40
*1198 FILLER_0_7_52
*1199 FILLER_0_7_54
*1200 FILLER_0_7_6
*1201 FILLER_0_7_63
*1202 FILLER_0_7_67
*1203 FILLER_0_7_69
*1204 FILLER_0_8_107
*1205 FILLER_0_8_170
*1206 FILLER_0_8_174
*1207 FILLER_0_8_183
*1208 FILLER_0_8_187
*1209 FILLER_0_8_2
*1210 FILLER_0_8_244
*1211 FILLER_0_8_255
*1212 FILLER_0_8_257
*1213 FILLER_0_8_26
*1214 FILLER_0_8_34
*1215 FILLER_0_8_45
*1216 FILLER_0_8_53
*1217 FILLER_0_8_6
*1218 FILLER_0_8_62
*1219 FILLER_0_8_64
*1220 FILLER_0_8_75
*1221 FILLER_0_8_93
*1222 FILLER_0_9_10
*1223 FILLER_0_9_125
*1224 FILLER_0_9_133
*1225 FILLER_0_9_137
*1226 FILLER_0_9_150
*1227 FILLER_0_9_180
*1228 FILLER_0_9_187
*1229 FILLER_0_9_191
*1230 FILLER_0_9_2
*1231 FILLER_0_9_207
*1232 FILLER_0_9_209
*1233 FILLER_0_9_212
*1234 FILLER_0_9_222
*1235 FILLER_0_9_226
*1236 FILLER_0_9_25
*1237 FILLER_0_9_257
*1238 FILLER_0_9_277
*1239 FILLER_0_9_279
*1240 FILLER_0_9_282
*1241 FILLER_0_9_29
*1242 FILLER_0_9_290
*1243 FILLER_0_9_294
*1244 FILLER_0_9_35
*1245 FILLER_0_9_43
*1246 FILLER_0_9_58
*1247 FILLER_0_9_91
*1248 FILLER_0_9_95
*1249 PHY_EDGE_ROW_0_Left_37
*1250 PHY_EDGE_ROW_0_Right_0
*1251 PHY_EDGE_ROW_10_Left_47
*1252 PHY_EDGE_ROW_10_Right_10
*1253 PHY_EDGE_ROW_11_Left_48
*1254 PHY_EDGE_ROW_11_Right_11
*1255 PHY_EDGE_ROW_12_Left_49
*1256 PHY_EDGE_ROW_12_Right_12
*1257 PHY_EDGE_ROW_13_Left_50
*1258 PHY_EDGE_ROW_13_Right_13
*1259 PHY_EDGE_ROW_14_Left_51
*1260 PHY_EDGE_ROW_14_Right_14
*1261 PHY_EDGE_ROW_15_Left_52
*1262 PHY_EDGE_ROW_15_Right_15
*1263 PHY_EDGE_ROW_16_Left_53
*1264 PHY_EDGE_ROW_16_Right_16
*1265 PHY_EDGE_ROW_17_Left_54
*1266 PHY_EDGE_ROW_17_Right_17
*1267 PHY_EDGE_ROW_18_Left_55
*1268 PHY_EDGE_ROW_18_Right_18
*1269 PHY_EDGE_ROW_19_Left_56
*1270 PHY_EDGE_ROW_19_Right_19
*1271 PHY_EDGE_ROW_1_Left_38
*1272 PHY_EDGE_ROW_1_Right_1
*1273 PHY_EDGE_ROW_20_Left_57
*1274 PHY_EDGE_ROW_20_Right_20
*1275 PHY_EDGE_ROW_21_Left_58
*1276 PHY_EDGE_ROW_21_Right_21
*1277 PHY_EDGE_ROW_22_Left_59
*1278 PHY_EDGE_ROW_22_Right_22
*1279 PHY_EDGE_ROW_23_Left_60
*1280 PHY_EDGE_ROW_23_Right_23
*1281 PHY_EDGE_ROW_24_Left_61
*1282 PHY_EDGE_ROW_24_Right_24
*1283 PHY_EDGE_ROW_25_Left_62
*1284 PHY_EDGE_ROW_25_Right_25
*1285 PHY_EDGE_ROW_26_Left_63
*1286 PHY_EDGE_ROW_26_Right_26
*1287 PHY_EDGE_ROW_27_Left_64
*1288 PHY_EDGE_ROW_27_Right_27
*1289 PHY_EDGE_ROW_28_Left_65
*1290 PHY_EDGE_ROW_28_Right_28
*1291 PHY_EDGE_ROW_29_Left_66
*1292 PHY_EDGE_ROW_29_Right_29
*1293 PHY_EDGE_ROW_2_Left_39
*1294 PHY_EDGE_ROW_2_Right_2
*1295 PHY_EDGE_ROW_30_Left_67
*1296 PHY_EDGE_ROW_30_Right_30
*1297 PHY_EDGE_ROW_31_Left_68
*1298 PHY_EDGE_ROW_31_Right_31
*1299 PHY_EDGE_ROW_32_Left_69
*1300 PHY_EDGE_ROW_32_Right_32
*1301 PHY_EDGE_ROW_33_Left_70
*1302 PHY_EDGE_ROW_33_Right_33
*1303 PHY_EDGE_ROW_34_Left_71
*1304 PHY_EDGE_ROW_34_Right_34
*1305 PHY_EDGE_ROW_35_Left_72
*1306 PHY_EDGE_ROW_35_Right_35
*1307 PHY_EDGE_ROW_36_Left_73
*1308 PHY_EDGE_ROW_36_Right_36
*1309 PHY_EDGE_ROW_3_Left_40
*1310 PHY_EDGE_ROW_3_Right_3
*1311 PHY_EDGE_ROW_4_Left_41
*1312 PHY_EDGE_ROW_4_Right_4
*1313 PHY_EDGE_ROW_5_Left_42
*1314 PHY_EDGE_ROW_5_Right_5
*1315 PHY_EDGE_ROW_6_Left_43
*1316 PHY_EDGE_ROW_6_Right_6
*1317 PHY_EDGE_ROW_7_Left_44
*1318 PHY_EDGE_ROW_7_Right_7
*1319 PHY_EDGE_ROW_8_Left_45
*1320 PHY_EDGE_ROW_8_Right_8
*1321 PHY_EDGE_ROW_9_Left_46
*1322 PHY_EDGE_ROW_9_Right_9
*1323 TAP_TAPCELL_ROW_0_74
*1324 TAP_TAPCELL_ROW_0_75
*1325 TAP_TAPCELL_ROW_0_76
*1326 TAP_TAPCELL_ROW_0_77
*1327 TAP_TAPCELL_ROW_0_78
*1328 TAP_TAPCELL_ROW_0_79
*1329 TAP_TAPCELL_ROW_0_80
*1330 TAP_TAPCELL_ROW_0_81
*1331 TAP_TAPCELL_ROW_10_118
*1332 TAP_TAPCELL_ROW_10_119
*1333 TAP_TAPCELL_ROW_10_120
*1334 TAP_TAPCELL_ROW_10_121
*1335 TAP_TAPCELL_ROW_11_122
*1336 TAP_TAPCELL_ROW_11_123
*1337 TAP_TAPCELL_ROW_11_124
*1338 TAP_TAPCELL_ROW_11_125
*1339 TAP_TAPCELL_ROW_12_126
*1340 TAP_TAPCELL_ROW_12_127
*1341 TAP_TAPCELL_ROW_12_128
*1342 TAP_TAPCELL_ROW_12_129
*1343 TAP_TAPCELL_ROW_13_130
*1344 TAP_TAPCELL_ROW_13_131
*1345 TAP_TAPCELL_ROW_13_132
*1346 TAP_TAPCELL_ROW_13_133
*1347 TAP_TAPCELL_ROW_14_134
*1348 TAP_TAPCELL_ROW_14_135
*1349 TAP_TAPCELL_ROW_14_136
*1350 TAP_TAPCELL_ROW_14_137
*1351 TAP_TAPCELL_ROW_15_138
*1352 TAP_TAPCELL_ROW_15_139
*1353 TAP_TAPCELL_ROW_15_140
*1354 TAP_TAPCELL_ROW_15_141
*1355 TAP_TAPCELL_ROW_16_142
*1356 TAP_TAPCELL_ROW_16_143
*1357 TAP_TAPCELL_ROW_16_144
*1358 TAP_TAPCELL_ROW_16_145
*1359 TAP_TAPCELL_ROW_17_146
*1360 TAP_TAPCELL_ROW_17_147
*1361 TAP_TAPCELL_ROW_17_148
*1362 TAP_TAPCELL_ROW_17_149
*1363 TAP_TAPCELL_ROW_18_150
*1364 TAP_TAPCELL_ROW_18_151
*1365 TAP_TAPCELL_ROW_18_152
*1366 TAP_TAPCELL_ROW_18_153
*1367 TAP_TAPCELL_ROW_19_154
*1368 TAP_TAPCELL_ROW_19_155
*1369 TAP_TAPCELL_ROW_19_156
*1370 TAP_TAPCELL_ROW_19_157
*1371 TAP_TAPCELL_ROW_1_82
*1372 TAP_TAPCELL_ROW_1_83
*1373 TAP_TAPCELL_ROW_1_84
*1374 TAP_TAPCELL_ROW_1_85
*1375 TAP_TAPCELL_ROW_20_158
*1376 TAP_TAPCELL_ROW_20_159
*1377 TAP_TAPCELL_ROW_20_160
*1378 TAP_TAPCELL_ROW_20_161
*1379 TAP_TAPCELL_ROW_21_162
*1380 TAP_TAPCELL_ROW_21_163
*1381 TAP_TAPCELL_ROW_21_164
*1382 TAP_TAPCELL_ROW_21_165
*1383 TAP_TAPCELL_ROW_22_166
*1384 TAP_TAPCELL_ROW_22_167
*1385 TAP_TAPCELL_ROW_22_168
*1386 TAP_TAPCELL_ROW_22_169
*1387 TAP_TAPCELL_ROW_23_170
*1388 TAP_TAPCELL_ROW_23_171
*1389 TAP_TAPCELL_ROW_23_172
*1390 TAP_TAPCELL_ROW_23_173
*1391 TAP_TAPCELL_ROW_24_174
*1392 TAP_TAPCELL_ROW_24_175
*1393 TAP_TAPCELL_ROW_24_176
*1394 TAP_TAPCELL_ROW_24_177
*1395 TAP_TAPCELL_ROW_25_178
*1396 TAP_TAPCELL_ROW_25_179
*1397 TAP_TAPCELL_ROW_25_180
*1398 TAP_TAPCELL_ROW_25_181
*1399 TAP_TAPCELL_ROW_26_182
*1400 TAP_TAPCELL_ROW_26_183
*1401 TAP_TAPCELL_ROW_26_184
*1402 TAP_TAPCELL_ROW_26_185
*1403 TAP_TAPCELL_ROW_27_186
*1404 TAP_TAPCELL_ROW_27_187
*1405 TAP_TAPCELL_ROW_27_188
*1406 TAP_TAPCELL_ROW_27_189
*1407 TAP_TAPCELL_ROW_28_190
*1408 TAP_TAPCELL_ROW_28_191
*1409 TAP_TAPCELL_ROW_28_192
*1410 TAP_TAPCELL_ROW_28_193
*1411 TAP_TAPCELL_ROW_29_194
*1412 TAP_TAPCELL_ROW_29_195
*1413 TAP_TAPCELL_ROW_29_196
*1414 TAP_TAPCELL_ROW_29_197
*1415 TAP_TAPCELL_ROW_2_86
*1416 TAP_TAPCELL_ROW_2_87
*1417 TAP_TAPCELL_ROW_2_88
*1418 TAP_TAPCELL_ROW_2_89
*1419 TAP_TAPCELL_ROW_30_198
*1420 TAP_TAPCELL_ROW_30_199
*1421 TAP_TAPCELL_ROW_30_200
*1422 TAP_TAPCELL_ROW_30_201
*1423 TAP_TAPCELL_ROW_31_202
*1424 TAP_TAPCELL_ROW_31_203
*1425 TAP_TAPCELL_ROW_31_204
*1426 TAP_TAPCELL_ROW_31_205
*1427 TAP_TAPCELL_ROW_32_206
*1428 TAP_TAPCELL_ROW_32_207
*1429 TAP_TAPCELL_ROW_32_208
*1430 TAP_TAPCELL_ROW_32_209
*1431 TAP_TAPCELL_ROW_33_210
*1432 TAP_TAPCELL_ROW_33_211
*1433 TAP_TAPCELL_ROW_33_212
*1434 TAP_TAPCELL_ROW_33_213
*1435 TAP_TAPCELL_ROW_34_214
*1436 TAP_TAPCELL_ROW_34_215
*1437 TAP_TAPCELL_ROW_34_216
*1438 TAP_TAPCELL_ROW_34_217
*1439 TAP_TAPCELL_ROW_35_218
*1440 TAP_TAPCELL_ROW_35_219
*1441 TAP_TAPCELL_ROW_35_220
*1442 TAP_TAPCELL_ROW_35_221
*1443 TAP_TAPCELL_ROW_36_222
*1444 TAP_TAPCELL_ROW_36_223
*1445 TAP_TAPCELL_ROW_36_224
*1446 TAP_TAPCELL_ROW_36_225
*1447 TAP_TAPCELL_ROW_36_226
*1448 TAP_TAPCELL_ROW_36_227
*1449 TAP_TAPCELL_ROW_36_228
*1450 TAP_TAPCELL_ROW_36_229
*1451 TAP_TAPCELL_ROW_3_90
*1452 TAP_TAPCELL_ROW_3_91
*1453 TAP_TAPCELL_ROW_3_92
*1454 TAP_TAPCELL_ROW_3_93
*1455 TAP_TAPCELL_ROW_4_94
*1456 TAP_TAPCELL_ROW_4_95
*1457 TAP_TAPCELL_ROW_4_96
*1458 TAP_TAPCELL_ROW_4_97
*1459 TAP_TAPCELL_ROW_5_100
*1460 TAP_TAPCELL_ROW_5_101
*1461 TAP_TAPCELL_ROW_5_98
*1462 TAP_TAPCELL_ROW_5_99
*1463 TAP_TAPCELL_ROW_6_102
*1464 TAP_TAPCELL_ROW_6_103
*1465 TAP_TAPCELL_ROW_6_104
*1466 TAP_TAPCELL_ROW_6_105
*1467 TAP_TAPCELL_ROW_7_106
*1468 TAP_TAPCELL_ROW_7_107
*1469 TAP_TAPCELL_ROW_7_108
*1470 TAP_TAPCELL_ROW_7_109
*1471 TAP_TAPCELL_ROW_8_110
*1472 TAP_TAPCELL_ROW_8_111
*1473 TAP_TAPCELL_ROW_8_112
*1474 TAP_TAPCELL_ROW_8_113
*1475 TAP_TAPCELL_ROW_9_114
*1476 TAP_TAPCELL_ROW_9_115
*1477 TAP_TAPCELL_ROW_9_116
*1478 TAP_TAPCELL_ROW_9_117
*1479 _428_
*1480 _429_
*1481 _430_
*1482 _431_
*1483 _432_
*1484 _433_
*1485 _434_
*1486 _435_
*1487 _436_
*1488 _437_
*1489 _438_
*1490 _439_
*1491 _440_
*1492 _441_
*1493 _442_
*1494 _443_
*1495 _444_
*1496 _445_
*1497 _446_
*1498 _447_
*1499 _448_
*1500 _449_
*1501 _450_
*1502 _451_
*1503 _452_
*1504 _453_
*1505 _454_
*1506 _455_
*1507 _456_
*1508 _457_
*1509 _458_
*1510 _459_
*1511 _460_
*1512 _461_
*1513 _462_
*1514 _463_
*1515 _464_
*1516 _465_
*1517 _466_
*1518 _467_
*1519 _468_
*1520 _469_
*1521 _470_
*1522 _471_
*1523 _472_
*1524 _473_
*1525 _474_
*1526 _475_
*1527 _476_
*1528 _477_
*1529 _478_
*1530 _479_
*1531 _480_
*1532 _481_
*1533 _482_
*1534 _483_
*1535 _484_
*1536 _485_
*1537 _486_
*1538 _487_
*1539 _488_
*1540 _489_
*1541 _490_
*1542 _491_
*1543 _492_
*1544 _493_
*1545 _494_
*1546 _495_
*1547 _496_
*1548 _497_
*1549 _498_
*1550 _499_
*1551 _500_
*1552 _501_
*1553 _502_
*1554 _503_
*1555 _504_
*1556 _505_
*1557 _506_
*1558 _507_
*1559 _508_
*1560 _509_
*1561 _510_
*1562 _511_
*1563 _512_
*1564 _513_
*1565 _514_
*1566 _515_
*1567 _516_
*1568 _517_
*1569 _518_
*1570 _519_
*1571 _520_
*1572 _521_
*1573 _522_
*1574 _523_
*1575 _524_
*1576 _525_
*1577 _526_
*1578 _527_
*1579 _528_
*1580 _529_
*1581 _530_
*1582 _531_
*1583 _532_
*1584 _533_
*1585 _534_
*1586 _535_
*1587 _536_
*1588 _537_
*1589 _538_
*1590 _539_
*1591 _540_
*1592 _541_
*1593 _542_
*1594 _543_
*1595 _544_
*1596 _545_
*1597 _546_
*1598 _547_
*1599 _548_
*1600 _549_