*SPEF "ieee 1481-1999"
*DESIGN "diceroll"
*DATE "11:11:11 Fri 11 11, 1111"
*VENDOR "OpenRCX"
*PROGRAM "Parallel Extraction"
*VERSION "1.0"
*DESIGN_FLOW "NAME_SCOPE LOCAL" "PIN_CAP NONE"
*DIVIDER /
*DELIMITER :
*BUS_DELIMITER []
*T_UNIT 1 NS
*C_UNIT 1 PF
*R_UNIT 1 OHM
*L_UNIT 1 HENRY

*NAME_MAP
*1 io_in
*2 io_out[0]
*3 io_out[1]
*4 io_out[2]
*5 io_out[3]
*6 io_out[4]
*7 io_out[5]
*8 io_out[6]
*9 io_out[7]
*10 io_out[8]
*11 rst_n
*14 wb_clk_i
*15 _000_
*16 _001_
*17 _002_
*18 _003_
*19 _004_
*20 _005_
*21 _006_
*22 _007_
*23 _008_
*24 _009_
*25 _010_
*26 _011_
*27 _012_
*28 _013_
*29 _014_
*30 _015_
*31 _016_
*32 _017_
*33 _018_
*34 _019_
*35 _020_
*36 _021_
*37 _022_
*38 _023_
*39 _024_
*40 _025_
*41 _026_
*42 _027_
*43 _028_
*44 _029_
*45 _030_
*46 _031_
*47 _032_
*48 _033_
*49 _034_
*50 _035_
*51 _036_
*52 _037_
*53 _038_
*54 _039_
*55 _040_
*56 _041_
*57 _042_
*58 _043_
*59 _044_
*60 _045_
*61 _046_
*62 _047_
*63 _048_
*64 _049_
*65 _050_
*66 _051_
*67 _052_
*68 _053_
*69 _054_
*70 _055_
*71 _056_
*72 _057_
*73 _058_
*74 _059_
*75 _060_
*76 _061_
*77 _062_
*78 _063_
*79 _064_
*80 _065_
*81 _066_
*82 _067_
*83 _068_
*84 _069_
*85 _070_
*86 _071_
*87 _072_
*88 _073_
*89 _074_
*90 _075_
*91 _076_
*92 _077_
*93 _078_
*94 _079_
*95 _080_
*96 _081_
*97 _082_
*98 _083_
*99 _084_
*100 _085_
*101 _086_
*102 _087_
*103 _088_
*104 _089_
*105 _090_
*106 _091_
*107 _092_
*108 _093_
*109 _094_
*110 _095_
*111 _096_
*112 _097_
*113 _098_
*114 _099_
*115 _100_
*116 _101_
*117 _102_
*118 _103_
*119 _104_
*120 _105_
*121 _106_
*122 _107_
*123 _108_
*124 _109_
*125 _110_
*126 _111_
*127 _112_
*128 _113_
*129 _114_
*130 _115_
*131 _116_
*132 _117_
*133 _118_
*134 _119_
*135 _120_
*136 _121_
*137 _122_
*138 _123_
*139 _124_
*140 _125_
*141 _126_
*142 _127_
*143 _128_
*144 _129_
*145 _130_
*146 _131_
*147 _132_
*148 _133_
*149 _134_
*150 _135_
*151 _136_
*152 _137_
*153 _138_
*154 _139_
*155 _140_
*156 _141_
*157 _142_
*158 _143_
*159 _144_
*160 _145_
*161 _146_
*162 _147_
*163 _148_
*164 _149_
*165 _150_
*166 _151_
*167 _152_
*168 _153_
*169 _154_
*170 _155_
*171 _156_
*172 _157_
*173 _158_
*174 _159_
*175 _160_
*176 _161_
*177 _162_
*178 _163_
*179 _164_
*180 _165_
*181 _166_
*182 _167_
*183 _168_
*184 _169_
*185 _170_
*186 _171_
*187 _172_
*188 _173_
*189 _174_
*190 _175_
*191 _176_
*192 _177_
*193 _178_
*194 _179_
*195 _180_
*196 _181_
*197 _182_
*198 _183_
*199 _184_
*200 _185_
*201 _186_
*202 _187_
*203 _188_
*204 _189_
*205 _190_
*206 _191_
*207 _192_
*208 _193_
*209 _194_
*210 _195_
*211 _196_
*212 _197_
*213 _198_
*214 _199_
*215 _200_
*216 _201_
*217 _202_
*218 _203_
*219 _204_
*220 _205_
*221 _206_
*222 _207_
*223 _208_
*224 _209_
*225 _210_
*226 _211_
*227 _212_
*228 _213_
*229 _214_
*230 _215_
*231 _216_
*232 _217_
*233 _218_
*234 _219_
*235 _220_
*236 _221_
*237 _222_
*238 _223_
*239 _224_
*240 _225_
*241 _226_
*242 _227_
*243 _228_
*244 _229_
*245 _230_
*246 _231_
*247 _232_
*248 _233_
*249 _234_
*250 _235_
*251 _236_
*252 _237_
*253 _238_
*254 _239_
*255 _240_
*256 _241_
*257 _242_
*258 _243_
*259 _244_
*260 _245_
*261 _246_
*262 _247_
*263 _248_
*264 _249_
*265 _250_
*266 _251_
*267 _252_
*268 _253_
*269 _254_
*270 _255_
*271 _256_
*272 _257_
*273 _258_
*274 _259_
*275 _260_
*276 _261_
*277 _262_
*278 _263_
*279 _264_
*280 _265_
*281 _266_
*282 _267_
*283 _268_
*284 _269_
*285 _270_
*286 _271_
*287 _272_
*288 _273_
*289 _274_
*290 _275_
*291 _276_
*292 _277_
*293 _278_
*294 _279_
*295 _280_
*296 _281_
*297 _282_
*298 _283_
*299 _284_
*300 _285_
*301 _286_
*302 _287_
*303 _288_
*304 _289_
*305 _290_
*306 _291_
*307 _292_
*308 _293_
*309 _294_
*310 _295_
*311 _296_
*312 _297_
*313 _298_
*314 _299_
*315 _300_
*316 _301_
*317 _302_
*318 _303_
*319 _304_
*320 _305_
*321 _306_
*322 _307_
*323 _308_
*324 _309_
*325 _310_
*326 _311_
*327 _312_
*328 _313_
*329 _314_
*330 _315_
*331 _316_
*332 _317_
*333 _318_
*334 _319_
*335 _320_
*336 _321_
*337 _322_
*338 _323_
*339 _324_
*340 _325_
*341 _326_
*342 _327_
*343 _328_
*344 _329_
*345 _330_
*346 _331_
*347 _332_
*348 _333_
*349 _334_
*350 _335_
*351 _336_
*352 _337_
*353 _338_
*354 _339_
*355 _340_
*356 _341_
*357 bcd\[0\]
*358 bcd\[1\]
*359 bcd\[2\]
*360 clkdiv\[0\]
*361 clkdiv\[1\]
*362 clkdiv\[2\]
*363 clkdiv\[3\]
*364 clkdiv\[4\]
*365 clkdiv\[5\]
*366 clkdiv\[6\]
*367 clkdiv\[7\]
*368 clknet_0_wb_clk_i
*369 clknet_3_0__leaf_wb_clk_i
*370 clknet_3_1__leaf_wb_clk_i
*371 clknet_3_2__leaf_wb_clk_i
*372 clknet_3_3__leaf_wb_clk_i
*373 clknet_3_4__leaf_wb_clk_i
*374 clknet_3_5__leaf_wb_clk_i
*375 clknet_3_6__leaf_wb_clk_i
*376 clknet_3_7__leaf_wb_clk_i
*377 counter\[0\]
*378 counter\[10\]
*379 counter\[11\]
*380 counter\[12\]
*381 counter\[13\]
*382 counter\[14\]
*383 counter\[15\]
*384 counter\[1\]
*385 counter\[2\]
*386 counter\[3\]
*387 counter\[4\]
*388 counter\[5\]
*389 counter\[6\]
*390 counter\[7\]
*391 counter\[8\]
*392 counter\[9\]
*393 lfsr\[0\]
*394 lfsr\[10\]
*395 lfsr\[11\]
*396 lfsr\[12\]
*397 lfsr\[13\]
*398 lfsr\[14\]
*399 lfsr\[15\]
*400 lfsr\[1\]
*401 lfsr\[2\]
*402 lfsr\[4\]
*403 lfsr\[5\]
*404 lfsr\[6\]
*405 lfsr\[7\]
*406 lfsr\[8\]
*407 lfsr\[9\]
*408 m_clkdiv\[0\]
*409 m_clkdiv\[1\]
*410 m_clkdiv\[2\]
*411 m_clkdiv\[3\]
*412 m_clkdiv\[4\]
*413 m_clkdiv\[5\]
*414 m_clkdiv\[6\]
*415 m_clkdiv\[7\]
*416 m_clkdiv\[8\]
*417 m_clkdiv\[9\]
*418 net1
*419 net10
*420 net11
*421 net2
*422 net3
*423 net4
*424 net5
*425 net6
*426 net7
*427 net8
*428 net9
*429 r_counter\[0\]
*430 r_counter\[1\]
*431 r_counter\[2\]
*432 ANTENNA__365__I
*433 ANTENNA__366__B
*434 ANTENNA__398__A1
*435 ANTENNA__407__A1
*436 ANTENNA__407__A2
*437 ANTENNA__408__A1
*438 ANTENNA__412__A1
*439 ANTENNA__412__A2
*440 ANTENNA__421__A1
*441 ANTENNA__434__I
*442 ANTENNA__436__I
*443 ANTENNA__438__A1
*444 ANTENNA__440__I
*445 ANTENNA__443__A1
*446 ANTENNA__447__I
*447 ANTENNA__450__A1
*448 ANTENNA__455__B
*449 ANTENNA__460__A1
*450 ANTENNA__462__B
*451 ANTENNA__466__A1
*452 ANTENNA__469__B
*453 ANTENNA__471__I
*454 ANTENNA__473__A1
*455 ANTENNA__474__I
*456 ANTENNA__475__I
*457 ANTENNA__480__I
*458 ANTENNA__483__I
*459 ANTENNA__485__I
*460 ANTENNA__500__A1
*461 ANTENNA__502__I
*462 ANTENNA__504__B
*463 ANTENNA__510__A1
*464 ANTENNA__516__I
*465 ANTENNA__520__C
*466 ANTENNA__523__I
*467 ANTENNA__524__A2
*468 ANTENNA__528__C
*469 ANTENNA__533__C
*470 ANTENNA__535__I
*471 ANTENNA__536__A2
*472 ANTENNA__537__A2
*473 ANTENNA__539__A2
*474 ANTENNA__540__A2
*475 ANTENNA__543__I
*476 ANTENNA__546__A1
*477 ANTENNA__548__A1
*478 ANTENNA__548__B
*479 ANTENNA__549__A2
*480 ANTENNA__553__B
*481 ANTENNA__557__I
*482 ANTENNA__558__A2
*483 ANTENNA__561__A2
*484 ANTENNA__562__A1
*485 ANTENNA__567__A2
*486 ANTENNA__568__I
*487 ANTENNA__581__A2
*488 ANTENNA__582__B
*489 ANTENNA__589__A2
*490 ANTENNA__591__C
*491 ANTENNA__595__A2
*492 ANTENNA__596__B
*493 ANTENNA__602__C
*494 ANTENNA__604__I
*495 ANTENNA__608__A2
*496 ANTENNA__609__C
*497 ANTENNA__614__C
*498 ANTENNA__616__I
*499 ANTENNA__621__A1
*500 ANTENNA__625__B
*501 ANTENNA__627__A2
*502 ANTENNA__635__A2
*503 ANTENNA__636__C
*504 ANTENNA__639__B
*505 ANTENNA__644__B
*506 ANTENNA__647__A1
*507 ANTENNA__652__B2
*508 ANTENNA__653__A1
*509 ANTENNA__658__A1
*510 ANTENNA__663__A1
*511 ANTENNA__664__A1
*512 ANTENNA__668__C
*513 ANTENNA__671__A3
*514 ANTENNA__672__A1
*515 ANTENNA__673__A2
*516 ANTENNA__674__A1
*517 ANTENNA__675__A2
*518 ANTENNA__676__A3
*519 ANTENNA__677__A1
*520 ANTENNA__680__A1
*521 ANTENNA__682__A1
*522 ANTENNA__682__B
*523 ANTENNA__684__CLK
*524 ANTENNA__685__CLK
*525 ANTENNA__686__CLK
*526 ANTENNA__687__CLK
*527 ANTENNA__688__CLK
*528 ANTENNA__688__D
*529 ANTENNA__689__CLK
*530 ANTENNA__689__D
*531 ANTENNA__690__CLK
*532 ANTENNA__691__CLK
*533 ANTENNA__692__CLK
*534 ANTENNA__693__CLK
*535 ANTENNA__694__CLK
*536 ANTENNA__695__CLK
*537 ANTENNA__696__CLK
*538 ANTENNA__697__CLK
*539 ANTENNA__698__CLK
*540 ANTENNA__699__CLK
*541 ANTENNA__700__CLK
*542 ANTENNA__701__CLK
*543 ANTENNA__702__CLK
*544 ANTENNA__703__CLK
*545 ANTENNA__704__CLK
*546 ANTENNA__705__CLK
*547 ANTENNA__706__CLK
*548 ANTENNA__707__CLK
*549 ANTENNA__708__CLK
*550 ANTENNA__709__CLK
*551 ANTENNA__710__CLK
*552 ANTENNA__711__CLK
*553 ANTENNA__712__CLK
*554 ANTENNA__713__CLK
*555 ANTENNA__714__CLK
*556 ANTENNA__715__CLK
*557 ANTENNA__716__CLK
*558 ANTENNA__717__CLK
*559 ANTENNA__718__CLK
*560 ANTENNA__719__CLK
*561 ANTENNA__720__CLK
*562 ANTENNA__721__CLK
*563 ANTENNA__722__CLK
*564 ANTENNA__723__CLK
*565 ANTENNA__724__CLK
*566 ANTENNA__725__CLK
*567 ANTENNA__726__CLK
*568 ANTENNA__727__CLK
*569 ANTENNA__728__CLK
*570 ANTENNA__729__CLK
*571 ANTENNA__730__CLK
*572 ANTENNA__731__CLK
*573 ANTENNA__732__CLK
*574 ANTENNA__733__CLK
*575 ANTENNA__734__CLK
*576 ANTENNA__735__CLK
*577 ANTENNA__736__CLK
*578 ANTENNA__737__CLK
*579 ANTENNA__738__CLK
*580 ANTENNA__739__CLK
*581 ANTENNA__740__CLK
*582 ANTENNA__741__CLK
*583 ANTENNA__742__CLK
*584 ANTENNA__743__CLK
*585 ANTENNA__744__CLK
*586 ANTENNA__745__CLK
*587 ANTENNA__746__CLK
*588 ANTENNA__747__CLK
*589 ANTENNA_clkbuf_0_wb_clk_i_I
*590 ANTENNA_clkbuf_3_0__f_wb_clk_i_I
*591 ANTENNA_clkbuf_3_1__f_wb_clk_i_I
*592 ANTENNA_clkbuf_3_2__f_wb_clk_i_I
*593 ANTENNA_clkbuf_3_3__f_wb_clk_i_I
*594 ANTENNA_clkbuf_3_4__f_wb_clk_i_I
*595 ANTENNA_clkbuf_3_5__f_wb_clk_i_I
*596 ANTENNA_clkbuf_3_6__f_wb_clk_i_I
*597 ANTENNA_clkbuf_3_7__f_wb_clk_i_I
*598 ANTENNA_input1_I
*599 ANTENNA_input2_I
*600 ANTENNA_output10_I
*601 FILLER_0_0_104
*602 FILLER_0_0_138
*603 FILLER_0_0_172
*604 FILLER_0_0_2
*605 FILLER_0_0_206
*606 FILLER_0_0_240
*607 FILLER_0_0_274
*608 FILLER_0_0_308
*609 FILLER_0_0_342
*610 FILLER_0_0_36
*611 FILLER_0_0_376
*612 FILLER_0_0_70
*613 FILLER_0_10_102
*614 FILLER_0_10_104
*615 FILLER_0_10_107
*616 FILLER_0_10_148
*617 FILLER_0_10_164
*618 FILLER_0_10_172
*619 FILLER_0_10_174
*620 FILLER_0_10_183
*621 FILLER_0_10_187
*622 FILLER_0_10_2
*623 FILLER_0_10_203
*624 FILLER_0_10_224
*625 FILLER_0_10_240
*626 FILLER_0_10_244
*627 FILLER_0_10_247
*628 FILLER_0_10_263
*629 FILLER_0_10_265
*630 FILLER_0_10_284
*631 FILLER_0_10_298
*632 FILLER_0_10_306
*633 FILLER_0_10_327
*634 FILLER_0_10_34
*635 FILLER_0_10_359
*636 FILLER_0_10_37
*637 FILLER_0_10_375
*638 FILLER_0_10_383
*639 FILLER_0_10_41
*640 FILLER_0_10_57
*641 FILLER_0_10_70
*642 FILLER_0_10_86
*643 FILLER_0_10_90
*644 FILLER_0_10_98
*645 FILLER_0_11_10
*646 FILLER_0_11_112
*647 FILLER_0_11_128
*648 FILLER_0_11_136
*649 FILLER_0_11_14
*650 FILLER_0_11_142
*651 FILLER_0_11_16
*652 FILLER_0_11_174
*653 FILLER_0_11_193
*654 FILLER_0_11_2
*655 FILLER_0_11_209
*656 FILLER_0_11_212
*657 FILLER_0_11_276
*658 FILLER_0_11_282
*659 FILLER_0_11_314
*660 FILLER_0_11_318
*661 FILLER_0_11_333
*662 FILLER_0_11_349
*663 FILLER_0_11_357
*664 FILLER_0_11_373
*665 FILLER_0_11_381
*666 FILLER_0_11_383
*667 FILLER_0_11_48
*668 FILLER_0_11_52
*669 FILLER_0_11_60
*670 FILLER_0_11_62
*671 FILLER_0_11_69
*672 FILLER_0_12_102
*673 FILLER_0_12_104
*674 FILLER_0_12_107
*675 FILLER_0_12_171
*676 FILLER_0_12_177
*677 FILLER_0_12_187
*678 FILLER_0_12_197
*679 FILLER_0_12_2
*680 FILLER_0_12_229
*681 FILLER_0_12_247
*682 FILLER_0_12_311
*683 FILLER_0_12_317
*684 FILLER_0_12_333
*685 FILLER_0_12_34
*686 FILLER_0_12_341
*687 FILLER_0_12_365
*688 FILLER_0_12_37
*689 FILLER_0_12_381
*690 FILLER_0_12_383
*691 FILLER_0_12_53
*692 FILLER_0_12_57
*693 FILLER_0_12_73
*694 FILLER_0_12_94
*695 FILLER_0_13_114
*696 FILLER_0_13_118
*697 FILLER_0_13_129
*698 FILLER_0_13_139
*699 FILLER_0_13_142
*700 FILLER_0_13_174
*701 FILLER_0_13_178
*702 FILLER_0_13_184
*703 FILLER_0_13_2
*704 FILLER_0_13_212
*705 FILLER_0_13_220
*706 FILLER_0_13_258
*707 FILLER_0_13_266
*708 FILLER_0_13_268
*709 FILLER_0_13_279
*710 FILLER_0_13_282
*711 FILLER_0_13_298
*712 FILLER_0_13_324
*713 FILLER_0_13_34
*714 FILLER_0_13_340
*715 FILLER_0_13_352
*716 FILLER_0_13_382
*717 FILLER_0_13_50
*718 FILLER_0_13_58
*719 FILLER_0_13_67
*720 FILLER_0_13_69
*721 FILLER_0_13_82
*722 FILLER_0_14_102
*723 FILLER_0_14_104
*724 FILLER_0_14_107
*725 FILLER_0_14_115
*726 FILLER_0_14_137
*727 FILLER_0_14_139
*728 FILLER_0_14_152
*729 FILLER_0_14_158
*730 FILLER_0_14_162
*731 FILLER_0_14_170
*732 FILLER_0_14_174
*733 FILLER_0_14_177
*734 FILLER_0_14_193
*735 FILLER_0_14_2
*736 FILLER_0_14_203
*737 FILLER_0_14_235
*738 FILLER_0_14_243
*739 FILLER_0_14_247
*740 FILLER_0_14_263
*741 FILLER_0_14_275
*742 FILLER_0_14_279
*743 FILLER_0_14_282
*744 FILLER_0_14_298
*745 FILLER_0_14_306
*746 FILLER_0_14_308
*747 FILLER_0_14_317
*748 FILLER_0_14_321
*749 FILLER_0_14_34
*750 FILLER_0_14_359
*751 FILLER_0_14_37
*752 FILLER_0_14_375
*753 FILLER_0_14_383
*754 FILLER_0_14_53
*755 FILLER_0_14_61
*756 FILLER_0_14_63
*757 FILLER_0_14_68
*758 FILLER_0_14_84
*759 FILLER_0_14_94
*760 FILLER_0_15_101
*761 FILLER_0_15_105
*762 FILLER_0_15_137
*763 FILLER_0_15_139
*764 FILLER_0_15_151
*765 FILLER_0_15_164
*766 FILLER_0_15_179
*767 FILLER_0_15_181
*768 FILLER_0_15_198
*769 FILLER_0_15_2
*770 FILLER_0_15_200
*771 FILLER_0_15_208
*772 FILLER_0_15_212
*773 FILLER_0_15_216
*774 FILLER_0_15_247
*775 FILLER_0_15_288
*776 FILLER_0_15_296
*777 FILLER_0_15_326
*778 FILLER_0_15_330
*779 FILLER_0_15_346
*780 FILLER_0_15_352
*781 FILLER_0_15_66
*782 FILLER_0_15_81
*783 FILLER_0_15_97
*784 FILLER_0_16_103
*785 FILLER_0_16_157
*786 FILLER_0_16_161
*787 FILLER_0_16_169
*788 FILLER_0_16_173
*789 FILLER_0_16_177
*790 FILLER_0_16_185
*791 FILLER_0_16_189
*792 FILLER_0_16_2
*793 FILLER_0_16_200
*794 FILLER_0_16_225
*795 FILLER_0_16_241
*796 FILLER_0_16_297
*797 FILLER_0_16_313
*798 FILLER_0_16_317
*799 FILLER_0_16_32
*800 FILLER_0_16_34
*801 FILLER_0_16_37
*802 FILLER_0_16_381
*803 FILLER_0_16_383
*804 FILLER_0_16_41
*805 FILLER_0_16_57
*806 FILLER_0_16_65
*807 FILLER_0_16_77
*808 FILLER_0_16_93
*809 FILLER_0_17_116
*810 FILLER_0_17_124
*811 FILLER_0_17_138
*812 FILLER_0_17_150
*813 FILLER_0_17_18
*814 FILLER_0_17_182
*815 FILLER_0_17_198
*816 FILLER_0_17_2
*817 FILLER_0_17_206
*818 FILLER_0_17_212
*819 FILLER_0_17_276
*820 FILLER_0_17_282
*821 FILLER_0_17_336
*822 FILLER_0_17_344
*823 FILLER_0_17_352
*824 FILLER_0_17_354
*825 FILLER_0_17_361
*826 FILLER_0_17_377
*827 FILLER_0_17_381
*828 FILLER_0_17_383
*829 FILLER_0_17_48
*830 FILLER_0_17_52
*831 FILLER_0_17_68
*832 FILLER_0_17_82
*833 FILLER_0_17_96
*834 FILLER_0_18_100
*835 FILLER_0_18_104
*836 FILLER_0_18_107
*837 FILLER_0_18_123
*838 FILLER_0_18_127
*839 FILLER_0_18_134
*840 FILLER_0_18_138
*841 FILLER_0_18_142
*842 FILLER_0_18_158
*843 FILLER_0_18_166
*844 FILLER_0_18_170
*845 FILLER_0_18_174
*846 FILLER_0_18_177
*847 FILLER_0_18_2
*848 FILLER_0_18_241
*849 FILLER_0_18_247
*850 FILLER_0_18_311
*851 FILLER_0_18_325
*852 FILLER_0_18_34
*853 FILLER_0_18_343
*854 FILLER_0_18_37
*855 FILLER_0_18_381
*856 FILLER_0_18_383
*857 FILLER_0_18_53
*858 FILLER_0_18_61
*859 FILLER_0_18_65
*860 FILLER_0_18_85
*861 FILLER_0_18_93
*862 FILLER_0_18_95
*863 FILLER_0_19_123
*864 FILLER_0_19_127
*865 FILLER_0_19_137
*866 FILLER_0_19_139
*867 FILLER_0_19_142
*868 FILLER_0_19_150
*869 FILLER_0_19_183
*870 FILLER_0_19_187
*871 FILLER_0_19_2
*872 FILLER_0_19_203
*873 FILLER_0_19_207
*874 FILLER_0_19_209
*875 FILLER_0_19_212
*876 FILLER_0_19_222
*877 FILLER_0_19_238
*878 FILLER_0_19_246
*879 FILLER_0_19_279
*880 FILLER_0_19_282
*881 FILLER_0_19_286
*882 FILLER_0_19_302
*883 FILLER_0_19_335
*884 FILLER_0_19_339
*885 FILLER_0_19_347
*886 FILLER_0_19_349
*887 FILLER_0_19_352
*888 FILLER_0_19_356
*889 FILLER_0_19_363
*890 FILLER_0_19_379
*891 FILLER_0_19_383
*892 FILLER_0_19_66
*893 FILLER_0_19_72
*894 FILLER_0_1_104
*895 FILLER_0_1_106
*896 FILLER_0_1_136
*897 FILLER_0_1_142
*898 FILLER_0_1_150
*899 FILLER_0_1_154
*900 FILLER_0_1_186
*901 FILLER_0_1_2
*902 FILLER_0_1_202
*903 FILLER_0_1_212
*904 FILLER_0_1_276
*905 FILLER_0_1_282
*906 FILLER_0_1_346
*907 FILLER_0_1_352
*908 FILLER_0_1_66
*909 FILLER_0_1_72
*910 FILLER_0_20_103
*911 FILLER_0_20_107
*912 FILLER_0_20_123
*913 FILLER_0_20_131
*914 FILLER_0_20_145
*915 FILLER_0_20_161
*916 FILLER_0_20_169
*917 FILLER_0_20_173
*918 FILLER_0_20_177
*919 FILLER_0_20_185
*920 FILLER_0_20_189
*921 FILLER_0_20_2
*922 FILLER_0_20_220
*923 FILLER_0_20_228
*924 FILLER_0_20_232
*925 FILLER_0_20_240
*926 FILLER_0_20_244
*927 FILLER_0_20_247
*928 FILLER_0_20_251
*929 FILLER_0_20_255
*930 FILLER_0_20_272
*931 FILLER_0_20_310
*932 FILLER_0_20_314
*933 FILLER_0_20_317
*934 FILLER_0_20_321
*935 FILLER_0_20_34
*936 FILLER_0_20_340
*937 FILLER_0_20_37
*938 FILLER_0_20_372
*939 FILLER_0_20_380
*940 FILLER_0_20_53
*941 FILLER_0_20_95
*942 FILLER_0_21_128
*943 FILLER_0_21_130
*944 FILLER_0_21_139
*945 FILLER_0_21_142
*946 FILLER_0_21_174
*947 FILLER_0_21_182
*948 FILLER_0_21_186
*949 FILLER_0_21_188
*950 FILLER_0_21_197
*951 FILLER_0_21_2
*952 FILLER_0_21_205
*953 FILLER_0_21_209
*954 FILLER_0_21_212
*955 FILLER_0_21_216
*956 FILLER_0_21_246
*957 FILLER_0_21_260
*958 FILLER_0_21_264
*959 FILLER_0_21_266
*960 FILLER_0_21_275
*961 FILLER_0_21_279
*962 FILLER_0_21_282
*963 FILLER_0_21_311
*964 FILLER_0_21_343
*965 FILLER_0_21_347
*966 FILLER_0_21_349
*967 FILLER_0_21_352
*968 FILLER_0_21_39
*969 FILLER_0_21_43
*970 FILLER_0_21_59
*971 FILLER_0_21_6
*972 FILLER_0_21_67
*973 FILLER_0_21_69
*974 FILLER_0_21_72
*975 FILLER_0_21_80
*976 FILLER_0_21_84
*977 FILLER_0_22_103
*978 FILLER_0_22_123
*979 FILLER_0_22_161
*980 FILLER_0_22_169
*981 FILLER_0_22_173
*982 FILLER_0_22_177
*983 FILLER_0_22_2
*984 FILLER_0_22_241
*985 FILLER_0_22_247
*986 FILLER_0_22_279
*987 FILLER_0_22_306
*988 FILLER_0_22_314
*989 FILLER_0_22_317
*990 FILLER_0_22_325
*991 FILLER_0_22_34
*992 FILLER_0_22_357
*993 FILLER_0_22_37
*994 FILLER_0_22_373
*995 FILLER_0_22_381
*996 FILLER_0_22_383
*997 FILLER_0_22_53
*998 FILLER_0_23_139
*999 FILLER_0_23_142
*1000 FILLER_0_23_158
*1001 FILLER_0_23_195
*1002 FILLER_0_23_199
*1003 FILLER_0_23_2
*1004 FILLER_0_23_207
*1005 FILLER_0_23_209
*1006 FILLER_0_23_212
*1007 FILLER_0_23_276
*1008 FILLER_0_23_282
*1009 FILLER_0_23_298
*1010 FILLER_0_23_306
*1011 FILLER_0_23_308
*1012 FILLER_0_23_338
*1013 FILLER_0_23_34
*1014 FILLER_0_23_342
*1015 FILLER_0_23_352
*1016 FILLER_0_23_42
*1017 FILLER_0_23_49
*1018 FILLER_0_23_57
*1019 FILLER_0_23_65
*1020 FILLER_0_23_69
*1021 FILLER_0_23_72
*1022 FILLER_0_23_76
*1023 FILLER_0_23_78
*1024 FILLER_0_24_107
*1025 FILLER_0_24_123
*1026 FILLER_0_24_131
*1027 FILLER_0_24_148
*1028 FILLER_0_24_164
*1029 FILLER_0_24_172
*1030 FILLER_0_24_174
*1031 FILLER_0_24_177
*1032 FILLER_0_24_2
*1033 FILLER_0_24_231
*1034 FILLER_0_24_239
*1035 FILLER_0_24_243
*1036 FILLER_0_24_247
*1037 FILLER_0_24_311
*1038 FILLER_0_24_317
*1039 FILLER_0_24_32
*1040 FILLER_0_24_34
*1041 FILLER_0_24_37
*1042 FILLER_0_24_380
*1043 FILLER_0_24_41
*1044 FILLER_0_24_81
*1045 FILLER_0_24_97
*1046 FILLER_0_25_100
*1047 FILLER_0_25_134
*1048 FILLER_0_25_138
*1049 FILLER_0_25_175
*1050 FILLER_0_25_179
*1051 FILLER_0_25_18
*1052 FILLER_0_25_195
*1053 FILLER_0_25_2
*1054 FILLER_0_25_203
*1055 FILLER_0_25_207
*1056 FILLER_0_25_209
*1057 FILLER_0_25_212
*1058 FILLER_0_25_244
*1059 FILLER_0_25_26
*1060 FILLER_0_25_260
*1061 FILLER_0_25_264
*1062 FILLER_0_25_269
*1063 FILLER_0_25_273
*1064 FILLER_0_25_275
*1065 FILLER_0_25_278
*1066 FILLER_0_25_282
*1067 FILLER_0_25_290
*1068 FILLER_0_25_294
*1069 FILLER_0_25_30
*1070 FILLER_0_25_302
*1071 FILLER_0_25_306
*1072 FILLER_0_25_338
*1073 FILLER_0_25_346
*1074 FILLER_0_25_352
*1075 FILLER_0_25_356
*1076 FILLER_0_25_358
*1077 FILLER_0_25_363
*1078 FILLER_0_25_37
*1079 FILLER_0_25_379
*1080 FILLER_0_25_383
*1081 FILLER_0_25_69
*1082 FILLER_0_25_72
*1083 FILLER_0_25_88
*1084 FILLER_0_25_96
*1085 FILLER_0_26_103
*1086 FILLER_0_26_107
*1087 FILLER_0_26_139
*1088 FILLER_0_26_164
*1089 FILLER_0_26_168
*1090 FILLER_0_26_172
*1091 FILLER_0_26_195
*1092 FILLER_0_26_2
*1093 FILLER_0_26_211
*1094 FILLER_0_26_213
*1095 FILLER_0_26_222
*1096 FILLER_0_26_238
*1097 FILLER_0_26_242
*1098 FILLER_0_26_244
*1099 FILLER_0_26_305
*1100 FILLER_0_26_309
*1101 FILLER_0_26_313
*1102 FILLER_0_26_317
*1103 FILLER_0_26_34
*1104 FILLER_0_26_349
*1105 FILLER_0_26_365
*1106 FILLER_0_26_37
*1107 FILLER_0_26_381
*1108 FILLER_0_26_383
*1109 FILLER_0_26_41
*1110 FILLER_0_26_55
*1111 FILLER_0_26_59
*1112 FILLER_0_26_91
*1113 FILLER_0_26_99
*1114 FILLER_0_27_121
*1115 FILLER_0_27_129
*1116 FILLER_0_27_150
*1117 FILLER_0_27_18
*1118 FILLER_0_27_182
*1119 FILLER_0_27_198
*1120 FILLER_0_27_2
*1121 FILLER_0_27_206
*1122 FILLER_0_27_212
*1123 FILLER_0_27_237
*1124 FILLER_0_27_253
*1125 FILLER_0_27_26
*1126 FILLER_0_27_261
*1127 FILLER_0_27_265
*1128 FILLER_0_27_275
*1129 FILLER_0_27_279
*1130 FILLER_0_27_282
*1131 FILLER_0_27_298
*1132 FILLER_0_27_302
*1133 FILLER_0_27_332
*1134 FILLER_0_27_336
*1135 FILLER_0_27_344
*1136 FILLER_0_27_348
*1137 FILLER_0_27_357
*1138 FILLER_0_27_373
*1139 FILLER_0_27_38
*1140 FILLER_0_27_381
*1141 FILLER_0_27_383
*1142 FILLER_0_27_42
*1143 FILLER_0_27_50
*1144 FILLER_0_27_54
*1145 FILLER_0_27_64
*1146 FILLER_0_27_68
*1147 FILLER_0_27_72
*1148 FILLER_0_27_76
*1149 FILLER_0_27_85
*1150 FILLER_0_27_89
*1151 FILLER_0_28_102
*1152 FILLER_0_28_104
*1153 FILLER_0_28_121
*1154 FILLER_0_28_125
*1155 FILLER_0_28_133
*1156 FILLER_0_28_151
*1157 FILLER_0_28_167
*1158 FILLER_0_28_18
*1159 FILLER_0_28_183
*1160 FILLER_0_28_187
*1161 FILLER_0_28_189
*1162 FILLER_0_28_192
*1163 FILLER_0_28_2
*1164 FILLER_0_28_222
*1165 FILLER_0_28_238
*1166 FILLER_0_28_242
*1167 FILLER_0_28_244
*1168 FILLER_0_28_247
*1169 FILLER_0_28_255
*1170 FILLER_0_28_269
*1171 FILLER_0_28_301
*1172 FILLER_0_28_323
*1173 FILLER_0_28_331
*1174 FILLER_0_28_346
*1175 FILLER_0_28_350
*1176 FILLER_0_28_357
*1177 FILLER_0_28_373
*1178 FILLER_0_28_381
*1179 FILLER_0_28_383
*1180 FILLER_0_28_45
*1181 FILLER_0_28_49
*1182 FILLER_0_28_51
*1183 FILLER_0_28_66
*1184 FILLER_0_28_82
*1185 FILLER_0_28_90
*1186 FILLER_0_28_98
*1187 FILLER_0_29_101
*1188 FILLER_0_29_110
*1189 FILLER_0_29_118
*1190 FILLER_0_29_120
*1191 FILLER_0_29_127
*1192 FILLER_0_29_131
*1193 FILLER_0_29_138
*1194 FILLER_0_29_148
*1195 FILLER_0_29_150
*1196 FILLER_0_29_157
*1197 FILLER_0_29_18
*1198 FILLER_0_29_189
*1199 FILLER_0_29_2
*1200 FILLER_0_29_205
*1201 FILLER_0_29_209
*1202 FILLER_0_29_212
*1203 FILLER_0_29_22
*1204 FILLER_0_29_276
*1205 FILLER_0_29_290
*1206 FILLER_0_29_306
*1207 FILLER_0_29_320
*1208 FILLER_0_29_336
*1209 FILLER_0_29_344
*1210 FILLER_0_29_348
*1211 FILLER_0_29_352
*1212 FILLER_0_29_354
*1213 FILLER_0_29_367
*1214 FILLER_0_29_383
*1215 FILLER_0_29_43
*1216 FILLER_0_29_59
*1217 FILLER_0_29_67
*1218 FILLER_0_29_69
*1219 FILLER_0_29_78
*1220 FILLER_0_29_80
*1221 FILLER_0_29_89
*1222 FILLER_0_29_99
*1223 FILLER_0_2_101
*1224 FILLER_0_2_107
*1225 FILLER_0_2_123
*1226 FILLER_0_2_156
*1227 FILLER_0_2_172
*1228 FILLER_0_2_174
*1229 FILLER_0_2_2
*1230 FILLER_0_2_206
*1231 FILLER_0_2_210
*1232 FILLER_0_2_242
*1233 FILLER_0_2_244
*1234 FILLER_0_2_247
*1235 FILLER_0_2_311
*1236 FILLER_0_2_317
*1237 FILLER_0_2_34
*1238 FILLER_0_2_37
*1239 FILLER_0_2_381
*1240 FILLER_0_2_383
*1241 FILLER_0_30_107
*1242 FILLER_0_30_123
*1243 FILLER_0_30_131
*1244 FILLER_0_30_143
*1245 FILLER_0_30_177
*1246 FILLER_0_30_2
*1247 FILLER_0_30_241
*1248 FILLER_0_30_247
*1249 FILLER_0_30_255
*1250 FILLER_0_30_259
*1251 FILLER_0_30_265
*1252 FILLER_0_30_269
*1253 FILLER_0_30_275
*1254 FILLER_0_30_307
*1255 FILLER_0_30_317
*1256 FILLER_0_30_321
*1257 FILLER_0_30_328
*1258 FILLER_0_30_34
*1259 FILLER_0_30_344
*1260 FILLER_0_30_348
*1261 FILLER_0_30_350
*1262 FILLER_0_30_37
*1263 FILLER_0_30_382
*1264 FILLER_0_30_47
*1265 FILLER_0_30_63
*1266 FILLER_0_30_71
*1267 FILLER_0_30_83
*1268 FILLER_0_30_93
*1269 FILLER_0_30_97
*1270 FILLER_0_31_103
*1271 FILLER_0_31_107
*1272 FILLER_0_31_139
*1273 FILLER_0_31_142
*1274 FILLER_0_31_158
*1275 FILLER_0_31_162
*1276 FILLER_0_31_197
*1277 FILLER_0_31_2
*1278 FILLER_0_31_201
*1279 FILLER_0_31_209
*1280 FILLER_0_31_241
*1281 FILLER_0_31_245
*1282 FILLER_0_31_253
*1283 FILLER_0_31_259
*1284 FILLER_0_31_275
*1285 FILLER_0_31_279
*1286 FILLER_0_31_282
*1287 FILLER_0_31_34
*1288 FILLER_0_31_346
*1289 FILLER_0_31_352
*1290 FILLER_0_31_356
*1291 FILLER_0_31_367
*1292 FILLER_0_31_383
*1293 FILLER_0_31_41
*1294 FILLER_0_31_57
*1295 FILLER_0_31_65
*1296 FILLER_0_31_69
*1297 FILLER_0_31_72
*1298 FILLER_0_31_88
*1299 FILLER_0_31_96
*1300 FILLER_0_32_104
*1301 FILLER_0_32_107
*1302 FILLER_0_32_115
*1303 FILLER_0_32_119
*1304 FILLER_0_32_121
*1305 FILLER_0_32_145
*1306 FILLER_0_32_161
*1307 FILLER_0_32_169
*1308 FILLER_0_32_173
*1309 FILLER_0_32_18
*1310 FILLER_0_32_185
*1311 FILLER_0_32_189
*1312 FILLER_0_32_2
*1313 FILLER_0_32_227
*1314 FILLER_0_32_231
*1315 FILLER_0_32_239
*1316 FILLER_0_32_26
*1317 FILLER_0_32_266
*1318 FILLER_0_32_270
*1319 FILLER_0_32_283
*1320 FILLER_0_32_291
*1321 FILLER_0_32_295
*1322 FILLER_0_32_302
*1323 FILLER_0_32_306
*1324 FILLER_0_32_314
*1325 FILLER_0_32_317
*1326 FILLER_0_32_381
*1327 FILLER_0_32_383
*1328 FILLER_0_32_47
*1329 FILLER_0_32_51
*1330 FILLER_0_32_83
*1331 FILLER_0_32_87
*1332 FILLER_0_32_89
*1333 FILLER_0_33_104
*1334 FILLER_0_33_108
*1335 FILLER_0_33_110
*1336 FILLER_0_33_119
*1337 FILLER_0_33_135
*1338 FILLER_0_33_139
*1339 FILLER_0_33_142
*1340 FILLER_0_33_174
*1341 FILLER_0_33_190
*1342 FILLER_0_33_2
*1343 FILLER_0_33_200
*1344 FILLER_0_33_205
*1345 FILLER_0_33_209
*1346 FILLER_0_33_212
*1347 FILLER_0_33_228
*1348 FILLER_0_33_236
*1349 FILLER_0_33_240
*1350 FILLER_0_33_242
*1351 FILLER_0_33_272
*1352 FILLER_0_33_276
*1353 FILLER_0_33_282
*1354 FILLER_0_33_327
*1355 FILLER_0_33_331
*1356 FILLER_0_33_34
*1357 FILLER_0_33_347
*1358 FILLER_0_33_349
*1359 FILLER_0_33_352
*1360 FILLER_0_33_356
*1361 FILLER_0_33_363
*1362 FILLER_0_33_379
*1363 FILLER_0_33_38
*1364 FILLER_0_33_383
*1365 FILLER_0_33_42
*1366 FILLER_0_33_58
*1367 FILLER_0_33_66
*1368 FILLER_0_33_72
*1369 FILLER_0_33_80
*1370 FILLER_0_33_84
*1371 FILLER_0_33_92
*1372 FILLER_0_33_96
*1373 FILLER_0_34_101
*1374 FILLER_0_34_107
*1375 FILLER_0_34_115
*1376 FILLER_0_34_160
*1377 FILLER_0_34_164
*1378 FILLER_0_34_172
*1379 FILLER_0_34_174
*1380 FILLER_0_34_177
*1381 FILLER_0_34_2
*1382 FILLER_0_34_241
*1383 FILLER_0_34_297
*1384 FILLER_0_34_299
*1385 FILLER_0_34_311
*1386 FILLER_0_34_325
*1387 FILLER_0_34_333
*1388 FILLER_0_34_34
*1389 FILLER_0_34_342
*1390 FILLER_0_34_346
*1391 FILLER_0_34_37
*1392 FILLER_0_34_379
*1393 FILLER_0_34_383
*1394 FILLER_0_34_69
*1395 FILLER_0_34_71
*1396 FILLER_0_35_142
*1397 FILLER_0_35_146
*1398 FILLER_0_35_150
*1399 FILLER_0_35_166
*1400 FILLER_0_35_170
*1401 FILLER_0_35_18
*1402 FILLER_0_35_2
*1403 FILLER_0_35_202
*1404 FILLER_0_35_212
*1405 FILLER_0_35_22
*1406 FILLER_0_35_244
*1407 FILLER_0_35_265
*1408 FILLER_0_35_272
*1409 FILLER_0_35_276
*1410 FILLER_0_35_28
*1411 FILLER_0_35_282
*1412 FILLER_0_35_284
*1413 FILLER_0_35_335
*1414 FILLER_0_35_343
*1415 FILLER_0_35_349
*1416 FILLER_0_35_352
*1417 FILLER_0_35_354
*1418 FILLER_0_35_36
*1419 FILLER_0_35_363
*1420 FILLER_0_35_379
*1421 FILLER_0_35_383
*1422 FILLER_0_35_40
*1423 FILLER_0_35_72
*1424 FILLER_0_35_76
*1425 FILLER_0_35_80
*1426 FILLER_0_36_101
*1427 FILLER_0_36_115
*1428 FILLER_0_36_117
*1429 FILLER_0_36_168
*1430 FILLER_0_36_172
*1431 FILLER_0_36_177
*1432 FILLER_0_36_185
*1433 FILLER_0_36_2
*1434 FILLER_0_36_201
*1435 FILLER_0_36_209
*1436 FILLER_0_36_211
*1437 FILLER_0_36_228
*1438 FILLER_0_36_232
*1439 FILLER_0_36_236
*1440 FILLER_0_36_244
*1441 FILLER_0_36_247
*1442 FILLER_0_36_251
*1443 FILLER_0_36_253
*1444 FILLER_0_36_260
*1445 FILLER_0_36_264
*1446 FILLER_0_36_296
*1447 FILLER_0_36_312
*1448 FILLER_0_36_323
*1449 FILLER_0_36_339
*1450 FILLER_0_36_341
*1451 FILLER_0_36_350
*1452 FILLER_0_36_37
*1453 FILLER_0_36_382
*1454 FILLER_0_36_41
*1455 FILLER_0_36_73
*1456 FILLER_0_36_89
*1457 FILLER_0_36_97
*1458 FILLER_0_37_104
*1459 FILLER_0_37_120
*1460 FILLER_0_37_128
*1461 FILLER_0_37_136
*1462 FILLER_0_37_142
*1463 FILLER_0_37_158
*1464 FILLER_0_37_162
*1465 FILLER_0_37_2
*1466 FILLER_0_37_206
*1467 FILLER_0_37_212
*1468 FILLER_0_37_216
*1469 FILLER_0_37_218
*1470 FILLER_0_37_227
*1471 FILLER_0_37_231
*1472 FILLER_0_37_282
*1473 FILLER_0_37_314
*1474 FILLER_0_37_325
*1475 FILLER_0_37_341
*1476 FILLER_0_37_349
*1477 FILLER_0_37_352
*1478 FILLER_0_37_365
*1479 FILLER_0_37_381
*1480 FILLER_0_37_383
*1481 FILLER_0_37_66
*1482 FILLER_0_37_72
*1483 FILLER_0_38_102
*1484 FILLER_0_38_104
*1485 FILLER_0_38_107
*1486 FILLER_0_38_171
*1487 FILLER_0_38_177
*1488 FILLER_0_38_2
*1489 FILLER_0_38_216
*1490 FILLER_0_38_224
*1491 FILLER_0_38_230
*1492 FILLER_0_38_234
*1493 FILLER_0_38_242
*1494 FILLER_0_38_244
*1495 FILLER_0_38_247
*1496 FILLER_0_38_255
*1497 FILLER_0_38_259
*1498 FILLER_0_38_273
*1499 FILLER_0_38_277
*1500 FILLER_0_38_283
*1501 FILLER_0_38_291
*1502 FILLER_0_38_295
*1503 FILLER_0_38_297
*1504 FILLER_0_38_314
*1505 FILLER_0_38_330
*1506 FILLER_0_38_34
*1507 FILLER_0_38_346
*1508 FILLER_0_38_354
*1509 FILLER_0_38_358
*1510 FILLER_0_38_367
*1511 FILLER_0_38_37
*1512 FILLER_0_38_383
*1513 FILLER_0_38_69
*1514 FILLER_0_38_77
*1515 FILLER_0_38_81
*1516 FILLER_0_38_85
*1517 FILLER_0_38_87
*1518 FILLER_0_38_94
*1519 FILLER_0_39_108
*1520 FILLER_0_39_112
*1521 FILLER_0_39_121
*1522 FILLER_0_39_137
*1523 FILLER_0_39_139
*1524 FILLER_0_39_142
*1525 FILLER_0_39_18
*1526 FILLER_0_39_2
*1527 FILLER_0_39_206
*1528 FILLER_0_39_212
*1529 FILLER_0_39_22
*1530 FILLER_0_39_220
*1531 FILLER_0_39_240
*1532 FILLER_0_39_256
*1533 FILLER_0_39_264
*1534 FILLER_0_39_268
*1535 FILLER_0_39_270
*1536 FILLER_0_39_277
*1537 FILLER_0_39_279
*1538 FILLER_0_39_282
*1539 FILLER_0_39_298
*1540 FILLER_0_39_302
*1541 FILLER_0_39_333
*1542 FILLER_0_39_337
*1543 FILLER_0_39_345
*1544 FILLER_0_39_349
*1545 FILLER_0_39_352
*1546 FILLER_0_39_369
*1547 FILLER_0_39_377
*1548 FILLER_0_39_381
*1549 FILLER_0_39_383
*1550 FILLER_0_39_53
*1551 FILLER_0_39_57
*1552 FILLER_0_39_65
*1553 FILLER_0_39_69
*1554 FILLER_0_39_76
*1555 FILLER_0_39_88
*1556 FILLER_0_39_92
*1557 FILLER_0_3_136
*1558 FILLER_0_3_142
*1559 FILLER_0_3_150
*1560 FILLER_0_3_189
*1561 FILLER_0_3_2
*1562 FILLER_0_3_205
*1563 FILLER_0_3_209
*1564 FILLER_0_3_241
*1565 FILLER_0_3_245
*1566 FILLER_0_3_277
*1567 FILLER_0_3_279
*1568 FILLER_0_3_282
*1569 FILLER_0_3_346
*1570 FILLER_0_3_352
*1571 FILLER_0_3_66
*1572 FILLER_0_3_72
*1573 FILLER_0_40_103