*SPEF "ieee 1481-1999"
*DESIGN "diceroll"
*DATE "11:11:11 Fri 11 11, 1111"
*VENDOR "OpenRCX"
*PROGRAM "Parallel Extraction"
*VERSION "1.0"
*DESIGN_FLOW "NAME_SCOPE LOCAL" "PIN_CAP NONE"
*DIVIDER /
*DELIMITER :
*BUS_DELIMITER []
*T_UNIT 1 NS
*C_UNIT 1 PF
*R_UNIT 1 OHM
*L_UNIT 1 HENRY

*NAME_MAP
*1 io_in
*2 io_out[0]
*3 io_out[1]
*4 io_out[2]
*5 io_out[3]
*6 io_out[4]
*7 io_out[5]
*8 io_out[6]
*9 io_out[7]
*10 io_out[8]
*11 rst_n
*14 wb_clk_i
*15 _000_
*16 _001_
*17 _002_
*18 _003_
*19 _004_
*20 _005_
*21 _006_
*22 _007_
*23 _008_
*24 _009_
*25 _010_
*26 _011_
*27 _012_
*28 _013_
*29 _014_
*30 _015_
*31 _016_
*32 _017_
*33 _018_
*34 _019_
*35 _020_
*36 _021_
*37 _022_
*38 _023_
*39 _024_
*40 _025_
*41 _026_
*42 _027_
*43 _028_
*44 _029_
*45 _030_
*46 _031_
*47 _032_
*48 _033_
*49 _034_
*50 _035_
*51 _036_
*52 _037_
*53 _038_
*54 _039_
*55 _040_
*56 _041_
*57 _042_
*58 _043_
*59 _044_
*60 _045_
*61 _046_
*62 _047_
*63 _048_
*64 _049_
*65 _050_
*66 _051_
*67 _052_
*68 _053_
*69 _054_
*70 _055_
*71 _056_
*72 _057_
*73 _058_
*74 _059_
*75 _060_
*76 _061_
*77 _062_
*78 _063_
*79 _064_
*80 _065_
*81 _066_
*82 _067_
*83 _068_
*84 _069_
*85 _070_
*86 _071_
*87 _072_
*88 _073_
*89 _074_
*90 _075_
*91 _076_
*92 _077_
*93 _078_
*94 _079_
*95 _080_
*96 _081_
*97 _082_
*98 _083_
*99 _084_
*100 _085_
*101 _086_
*102 _087_
*103 _088_
*104 _089_
*105 _090_
*106 _091_
*107 _092_
*108 _093_
*109 _094_
*110 _095_
*111 _096_
*112 _097_
*113 _098_
*114 _099_
*115 _100_
*116 _101_
*117 _102_
*118 _103_
*119 _104_
*120 _105_
*121 _106_
*122 _107_
*123 _108_
*124 _109_
*125 _110_
*126 _111_
*127 _112_
*128 _113_
*129 _114_
*130 _115_
*131 _116_
*132 _117_
*133 _118_
*134 _119_
*135 _120_
*136 _121_
*137 _122_
*138 _123_
*139 _124_
*140 _125_
*141 _126_
*142 _127_
*143 _128_
*144 _129_
*145 _130_
*146 _131_
*147 _132_
*148 _133_
*149 _134_
*150 _135_
*151 _136_
*152 _137_
*153 _138_
*154 _139_
*155 _140_
*156 _141_
*157 _142_
*158 _143_
*159 _144_
*160 _145_
*161 _146_
*162 _147_
*163 _148_
*164 _149_
*165 _150_
*166 _151_
*167 _152_
*168 _153_
*169 _154_
*170 _155_
*171 _156_
*172 _157_
*173 _158_
*174 _159_
*175 _160_
*176 _161_
*177 _162_
*178 _163_
*179 _164_
*180 _165_
*181 _166_
*182 _167_
*183 _168_
*184 _169_
*185 _170_
*186 _171_
*187 _172_
*188 _173_
*189 _174_
*190 _175_
*191 _176_
*192 _177_
*193 _178_
*194 _179_
*195 _180_
*196 _181_
*197 _182_
*198 _183_
*199 _184_
*200 _185_
*201 _186_
*202 _187_
*203 _188_
*204 _189_
*205 _190_
*206 _191_
*207 _192_
*208 _193_
*209 _194_
*210 _195_
*211 _196_
*212 _197_
*213 _198_
*214 _199_
*215 _200_
*216 _201_
*217 _202_
*218 _203_
*219 _204_
*220 _205_
*221 _206_
*222 _207_
*223 _208_
*224 _209_
*225 _210_
*226 _211_
*227 _212_
*228 _213_
*229 _214_
*230 _215_
*231 _216_
*232 _217_
*233 _218_
*234 _219_
*235 _220_
*236 _221_
*237 _222_
*238 _223_
*239 _224_
*240 _225_
*241 _226_
*242 _227_
*243 _228_
*244 _229_
*245 _230_
*246 _231_
*247 _232_
*248 _233_
*249 _234_
*250 _235_
*251 _236_
*252 _237_
*253 _238_
*254 _239_
*255 _240_
*256 _241_
*257 _242_
*258 _243_
*259 _244_
*260 _245_
*261 _246_
*262 _247_
*263 _248_
*264 _249_
*265 _250_
*266 _251_
*267 _252_
*268 _253_
*269 _254_
*270 _255_
*271 _256_
*272 _257_
*273 _258_
*274 _259_
*275 _260_
*276 _261_
*277 _262_
*278 _263_
*279 _264_
*280 _265_
*281 _266_
*282 _267_
*283 _268_
*284 _269_
*285 _270_
*286 _271_
*287 _272_
*288 _273_
*289 _274_
*290 _275_
*291 _276_
*292 _277_
*293 _278_
*294 _279_
*295 _280_
*296 _281_
*297 _282_
*298 _283_
*299 _284_
*300 _285_
*301 _286_
*302 _287_
*303 _288_
*304 _289_
*305 _290_
*306 _291_
*307 _292_
*308 _293_
*309 _294_
*310 _295_
*311 _296_
*312 _297_
*313 _298_
*314 _299_
*315 _300_
*316 _301_
*317 _302_
*318 _303_
*319 _304_
*320 _305_
*321 _306_
*322 _307_
*323 _308_
*324 _309_
*325 _310_
*326 _311_
*327 _312_
*328 _313_
*329 _314_
*330 _315_
*331 _316_
*332 _317_
*333 _318_
*334 _319_
*335 _320_
*336 _321_
*337 _322_
*338 _323_
*339 _324_
*340 _325_
*341 _326_
*342 _327_
*343 _328_
*344 _329_
*345 _330_
*346 _331_
*347 _332_
*348 _333_
*349 _334_
*350 _335_
*351 _336_
*352 bcd\[0\]
*353 bcd\[1\]
*354 bcd\[2\]
*355 clkdiv\[0\]
*356 clkdiv\[1\]
*357 clkdiv\[2\]
*358 clkdiv\[3\]
*359 clkdiv\[4\]
*360 clkdiv\[5\]
*361 clkdiv\[6\]
*362 clkdiv\[7\]
*363 clknet_0_wb_clk_i
*364 clknet_3_0__leaf_wb_clk_i
*365 clknet_3_1__leaf_wb_clk_i
*366 clknet_3_2__leaf_wb_clk_i
*367 clknet_3_3__leaf_wb_clk_i
*368 clknet_3_4__leaf_wb_clk_i
*369 clknet_3_5__leaf_wb_clk_i
*370 clknet_3_6__leaf_wb_clk_i
*371 clknet_3_7__leaf_wb_clk_i
*372 counter\[0\]
*373 counter\[10\]
*374 counter\[11\]
*375 counter\[12\]
*376 counter\[13\]
*377 counter\[14\]
*378 counter\[15\]
*379 counter\[1\]
*380 counter\[2\]
*381 counter\[3\]
*382 counter\[4\]
*383 counter\[5\]
*384 counter\[6\]
*385 counter\[7\]
*386 counter\[8\]
*387 counter\[9\]
*388 lfsr\[0\]
*389 lfsr\[10\]
*390 lfsr\[11\]
*391 lfsr\[12\]
*392 lfsr\[13\]
*393 lfsr\[14\]
*394 lfsr\[15\]
*395 lfsr\[1\]
*396 lfsr\[2\]
*397 lfsr\[4\]
*398 lfsr\[5\]
*399 lfsr\[6\]
*400 lfsr\[7\]
*401 lfsr\[8\]
*402 lfsr\[9\]
*403 m_clkdiv\[0\]
*404 m_clkdiv\[1\]
*405 m_clkdiv\[2\]
*406 m_clkdiv\[3\]
*407 m_clkdiv\[4\]
*408 m_clkdiv\[5\]
*409 m_clkdiv\[6\]
*410 m_clkdiv\[7\]
*411 m_clkdiv\[8\]
*412 m_clkdiv\[9\]
*413 net1
*414 net10
*415 net11
*416 net2
*417 net3
*418 net4
*419 net5
*420 net6
*421 net7
*422 net8
*423 net9
*424 r_counter\[0\]
*425 r_counter\[1\]
*426 r_counter\[2\]
*427 ANTENNA__362__I
*428 ANTENNA__363__B
*429 ANTENNA__395__A1
*430 ANTENNA__408__A1
*431 ANTENNA__411__I
*432 ANTENNA__412__B
*433 ANTENNA__417__C
*434 ANTENNA__428__I
*435 ANTENNA__430__A2
*436 ANTENNA__433__A1
*437 ANTENNA__435__I
*438 ANTENNA__436__I
*439 ANTENNA__439__A1
*440 ANTENNA__443__I
*441 ANTENNA__445__A1
*442 ANTENNA__450__B
*443 ANTENNA__454__B
*444 ANTENNA__457__I
*445 ANTENNA__458__B
*446 ANTENNA__462__A1
*447 ANTENNA__463__B
*448 ANTENNA__465__I
*449 ANTENNA__468__A1
*450 ANTENNA__470__I
*451 ANTENNA__474__I
*452 ANTENNA__475__I
*453 ANTENNA__476__I
*454 ANTENNA__477__A1
*455 ANTENNA__480__I
*456 ANTENNA__482__I
*457 ANTENNA__484__A2
*458 ANTENNA__484__C
*459 ANTENNA__490__C
*460 ANTENNA__494__I
*461 ANTENNA__495__A2
*462 ANTENNA__497__A1
*463 ANTENNA__502__C
*464 ANTENNA__506__A1
*465 ANTENNA__509__B
*466 ANTENNA__511__I
*467 ANTENNA__514__A1
*468 ANTENNA__515__A1
*469 ANTENNA__517__A2
*470 ANTENNA__517__C
*471 ANTENNA__520__A2
*472 ANTENNA__521__A1
*473 ANTENNA__522__A1
*474 ANTENNA__523__A2
*475 ANTENNA__523__C
*476 ANTENNA__524__I
*477 ANTENNA__527__A1
*478 ANTENNA__530__B
*479 ANTENNA__532__A2
*480 ANTENNA__537__A1
*481 ANTENNA__539__B
*482 ANTENNA__540__B
*483 ANTENNA__542__I
*484 ANTENNA__547__I
*485 ANTENNA__552__A1
*486 ANTENNA__557__B
*487 ANTENNA__558__I
*488 ANTENNA__562__C
*489 ANTENNA__567__B
*490 ANTENNA__571__I
*491 ANTENNA__575__C
*492 ANTENNA__578__C
*493 ANTENNA__581__C
*494 ANTENNA__586__B
*495 ANTENNA__591__A1
*496 ANTENNA__592__B2
*497 ANTENNA__593__C
*498 ANTENNA__597__B
*499 ANTENNA__600__I
*500 ANTENNA__601__B
*501 ANTENNA__603__A2
*502 ANTENNA__605__B
*503 ANTENNA__610__B
*504 ANTENNA__611__A1
*505 ANTENNA__613__A1
*506 ANTENNA__617__A3
*507 ANTENNA__618__B
*508 ANTENNA__622__A1
*509 ANTENNA__624__C
*510 ANTENNA__626__A1
*511 ANTENNA__628__A1
*512 ANTENNA__632__B
*513 ANTENNA__635__A1
*514 ANTENNA__638__I
*515 ANTENNA__639__A2
*516 ANTENNA__640__B
*517 ANTENNA__643__C
*518 ANTENNA__647__B
*519 ANTENNA__648__A3
*520 ANTENNA__651__C
*521 ANTENNA__655__A1
*522 ANTENNA__656__A2
*523 ANTENNA__659__C
*524 ANTENNA__663__A1
*525 ANTENNA__664__A2
*526 ANTENNA__665__A1
*527 ANTENNA__668__A1
*528 ANTENNA__671__A1
*529 ANTENNA__672__A1
*530 ANTENNA__672__B
*531 ANTENNA__673__A1
*532 ANTENNA__673__C
*533 ANTENNA__674__CLK
*534 ANTENNA__675__CLK
*535 ANTENNA__676__CLK
*536 ANTENNA__677__CLK
*537 ANTENNA__678__CLK
*538 ANTENNA__679__CLK
*539 ANTENNA__680__CLK
*540 ANTENNA__681__CLK
*541 ANTENNA__682__CLK
*542 ANTENNA__683__CLK
*543 ANTENNA__684__CLK
*544 ANTENNA__685__CLK
*545 ANTENNA__686__CLK
*546 ANTENNA__687__CLK
*547 ANTENNA__688__CLK
*548 ANTENNA__689__CLK
*549 ANTENNA__690__CLK
*550 ANTENNA__691__CLK
*551 ANTENNA__692__CLK
*552 ANTENNA__693__CLK
*553 ANTENNA__694__CLK
*554 ANTENNA__695__CLK
*555 ANTENNA__696__CLK
*556 ANTENNA__697__CLK
*557 ANTENNA__698__CLK
*558 ANTENNA__699__CLK
*559 ANTENNA__700__CLK
*560 ANTENNA__701__CLK
*561 ANTENNA__702__CLK
*562 ANTENNA__703__CLK
*563 ANTENNA__704__CLK
*564 ANTENNA__705__CLK
*565 ANTENNA__706__CLK
*566 ANTENNA__707__CLK
*567 ANTENNA__708__CLK
*568 ANTENNA__709__CLK
*569 ANTENNA__710__CLK
*570 ANTENNA__711__CLK
*571 ANTENNA__712__CLK
*572 ANTENNA__713__CLK
*573 ANTENNA__714__CLK
*574 ANTENNA__715__CLK
*575 ANTENNA__716__CLK
*576 ANTENNA__717__CLK
*577 ANTENNA__718__CLK
*578 ANTENNA__719__CLK
*579 ANTENNA__720__CLK
*580 ANTENNA__721__CLK
*581 ANTENNA__722__CLK
*582 ANTENNA__723__CLK
*583 ANTENNA__724__CLK
*584 ANTENNA__725__CLK
*585 ANTENNA__726__CLK
*586 ANTENNA__727__CLK
*587 ANTENNA__728__CLK
*588 ANTENNA__729__CLK
*589 ANTENNA__730__CLK
*590 ANTENNA__731__CLK
*591 ANTENNA__732__CLK
*592 ANTENNA__733__CLK
*593 ANTENNA__734__CLK
*594 ANTENNA__735__CLK
*595 ANTENNA__736__CLK
*596 ANTENNA__737__CLK
*597 ANTENNA_clkbuf_0_wb_clk_i_I
*598 ANTENNA_clkbuf_3_0__f_wb_clk_i_I
*599 ANTENNA_clkbuf_3_1__f_wb_clk_i_I
*600 ANTENNA_clkbuf_3_2__f_wb_clk_i_I
*601 ANTENNA_clkbuf_3_3__f_wb_clk_i_I
*602 ANTENNA_clkbuf_3_4__f_wb_clk_i_I
*603 ANTENNA_clkbuf_3_5__f_wb_clk_i_I
*604 ANTENNA_clkbuf_3_6__f_wb_clk_i_I
*605 ANTENNA_clkbuf_3_7__f_wb_clk_i_I
*606 ANTENNA_input1_I
*607 ANTENNA_input2_I
*608 ANTENNA_output10_I
*609 FILLER_0_0_104
*610 FILLER_0_0_138
*611 FILLER_0_0_172
*612 FILLER_0_0_2
*613 FILLER_0_0_206
*614 FILLER_0_0_240
*615 FILLER_0_0_274
*616 FILLER_0_0_308
*617 FILLER_0_0_342
*618 FILLER_0_0_36
*619 FILLER_0_0_376
*620 FILLER_0_0_70
*621 FILLER_0_10_102
*622 FILLER_0_10_104
*623 FILLER_0_10_107
*624 FILLER_0_10_109
*625 FILLER_0_10_119
*626 FILLER_0_10_123
*627 FILLER_0_10_155
*628 FILLER_0_10_171
*629 FILLER_0_10_177
*630 FILLER_0_10_18
*631 FILLER_0_10_181
*632 FILLER_0_10_192
*633 FILLER_0_10_2
*634 FILLER_0_10_210
*635 FILLER_0_10_22
*636 FILLER_0_10_241
*637 FILLER_0_10_247
*638 FILLER_0_10_279
*639 FILLER_0_10_295
*640 FILLER_0_10_306
*641 FILLER_0_10_314
*642 FILLER_0_10_317
*643 FILLER_0_10_381
*644 FILLER_0_10_383
*645 FILLER_0_10_54
*646 FILLER_0_10_58
*647 FILLER_0_10_90
*648 FILLER_0_10_98
*649 FILLER_0_11_124
*650 FILLER_0_11_142
*651 FILLER_0_11_158
*652 FILLER_0_11_166
*653 FILLER_0_11_168
*654 FILLER_0_11_2
*655 FILLER_0_11_212
*656 FILLER_0_11_276
*657 FILLER_0_11_282
*658 FILLER_0_11_314
*659 FILLER_0_11_317
*660 FILLER_0_11_34
*661 FILLER_0_11_349
*662 FILLER_0_11_352
*663 FILLER_0_11_40
*664 FILLER_0_11_44
*665 FILLER_0_11_46
*666 FILLER_0_11_49
*667 FILLER_0_11_57
*668 FILLER_0_11_88
*669 FILLER_0_11_92
*670 FILLER_0_12_101
*671 FILLER_0_12_107
*672 FILLER_0_12_115
*673 FILLER_0_12_156
*674 FILLER_0_12_160
*675 FILLER_0_12_168
*676 FILLER_0_12_172
*677 FILLER_0_12_174
*678 FILLER_0_12_177
*679 FILLER_0_12_18
*680 FILLER_0_12_181
*681 FILLER_0_12_185
*682 FILLER_0_12_193
*683 FILLER_0_12_2
*684 FILLER_0_12_204
*685 FILLER_0_12_208
*686 FILLER_0_12_212
*687 FILLER_0_12_220
*688 FILLER_0_12_236
*689 FILLER_0_12_244
*690 FILLER_0_12_247
*691 FILLER_0_12_26
*692 FILLER_0_12_279
*693 FILLER_0_12_295
*694 FILLER_0_12_30
*695 FILLER_0_12_303
*696 FILLER_0_12_313
*697 FILLER_0_12_346
*698 FILLER_0_12_378
*699 FILLER_0_12_382
*700 FILLER_0_12_47
*701 FILLER_0_12_56
*702 FILLER_0_12_92
*703 FILLER_0_12_94
*704 FILLER_0_13_101
*705 FILLER_0_13_109
*706 FILLER_0_13_129
*707 FILLER_0_13_133
*708 FILLER_0_13_137
*709 FILLER_0_13_139
*710 FILLER_0_13_142
*711 FILLER_0_13_2
*712 FILLER_0_13_206
*713 FILLER_0_13_212
*714 FILLER_0_13_220
*715 FILLER_0_13_222
*716 FILLER_0_13_254
*717 FILLER_0_13_258
*718 FILLER_0_13_274
*719 FILLER_0_13_278
*720 FILLER_0_13_282
*721 FILLER_0_13_316
*722 FILLER_0_13_348
*723 FILLER_0_13_352
*724 FILLER_0_13_36
*725 FILLER_0_13_68
*726 FILLER_0_13_81
*727 FILLER_0_13_89
*728 FILLER_0_13_97
*729 FILLER_0_14_101
*730 FILLER_0_14_107
*731 FILLER_0_14_111
*732 FILLER_0_14_113
*733 FILLER_0_14_119
*734 FILLER_0_14_121
*735 FILLER_0_14_128
*736 FILLER_0_14_160
*737 FILLER_0_14_164
*738 FILLER_0_14_166
*739 FILLER_0_14_169
*740 FILLER_0_14_173
*741 FILLER_0_14_177
*742 FILLER_0_14_185
*743 FILLER_0_14_189
*744 FILLER_0_14_191
*745 FILLER_0_14_2
*746 FILLER_0_14_208
*747 FILLER_0_14_212
*748 FILLER_0_14_218
*749 FILLER_0_14_234
*750 FILLER_0_14_242
*751 FILLER_0_14_297
*752 FILLER_0_14_313
*753 FILLER_0_14_317
*754 FILLER_0_14_34
*755 FILLER_0_14_381
*756 FILLER_0_14_383
*757 FILLER_0_14_45
*758 FILLER_0_14_77
*759 FILLER_0_14_93
*760 FILLER_0_15_136
*761 FILLER_0_15_142
*762 FILLER_0_15_158
*763 FILLER_0_15_160
*764 FILLER_0_15_167
*765 FILLER_0_15_176
*766 FILLER_0_15_192
*767 FILLER_0_15_2
*768 FILLER_0_15_249
*769 FILLER_0_15_282
*770 FILLER_0_15_286
*771 FILLER_0_15_290
*772 FILLER_0_15_329
*773 FILLER_0_15_345
*774 FILLER_0_15_349
*775 FILLER_0_15_352
*776 FILLER_0_15_66
*777 FILLER_0_15_72
*778 FILLER_0_16_113
*779 FILLER_0_16_164
*780 FILLER_0_16_168
*781 FILLER_0_16_172
*782 FILLER_0_16_174
*783 FILLER_0_16_177
*784 FILLER_0_16_2
*785 FILLER_0_16_200
*786 FILLER_0_16_232
*787 FILLER_0_16_240
*788 FILLER_0_16_244
*789 FILLER_0_16_247
*790 FILLER_0_16_263
*791 FILLER_0_16_270
*792 FILLER_0_16_286
*793 FILLER_0_16_304
*794 FILLER_0_16_306
*795 FILLER_0_16_317
*796 FILLER_0_16_34
*797 FILLER_0_16_350
*798 FILLER_0_16_37
*799 FILLER_0_16_382
*800 FILLER_0_16_69
*801 FILLER_0_16_93
*802 FILLER_0_16_97
*803 FILLER_0_17_126
*804 FILLER_0_17_130
*805 FILLER_0_17_138
*806 FILLER_0_17_147
*807 FILLER_0_17_163
*808 FILLER_0_17_175
*809 FILLER_0_17_2
*810 FILLER_0_17_207
*811 FILLER_0_17_209
*812 FILLER_0_17_212
*813 FILLER_0_17_244
*814 FILLER_0_17_267
*815 FILLER_0_17_275
*816 FILLER_0_17_277
*817 FILLER_0_17_332
*818 FILLER_0_17_34
*819 FILLER_0_17_348
*820 FILLER_0_17_352
*821 FILLER_0_17_38
*822 FILLER_0_17_69
*823 FILLER_0_17_72
*824 FILLER_0_18_107
*825 FILLER_0_18_140
*826 FILLER_0_18_144
*827 FILLER_0_18_160
*828 FILLER_0_18_168
*829 FILLER_0_18_172
*830 FILLER_0_18_174
*831 FILLER_0_18_177
*832 FILLER_0_18_18
*833 FILLER_0_18_185
*834 FILLER_0_18_189
*835 FILLER_0_18_191
*836 FILLER_0_18_2
*837 FILLER_0_18_202
*838 FILLER_0_18_208
*839 FILLER_0_18_240
*840 FILLER_0_18_244
*841 FILLER_0_18_247
*842 FILLER_0_18_26
*843 FILLER_0_18_263
*844 FILLER_0_18_284
*845 FILLER_0_18_30
*846 FILLER_0_18_300
*847 FILLER_0_18_310
*848 FILLER_0_18_314
*849 FILLER_0_18_323
*850 FILLER_0_18_34
*851 FILLER_0_18_355
*852 FILLER_0_18_371
*853 FILLER_0_18_379
*854 FILLER_0_18_383
*855 FILLER_0_18_46
*856 FILLER_0_18_62
*857 FILLER_0_18_83
*858 FILLER_0_18_93
*859 FILLER_0_18_97
*860 FILLER_0_19_104
*861 FILLER_0_19_108
*862 FILLER_0_19_110
*863 FILLER_0_19_130
*864 FILLER_0_19_134
*865 FILLER_0_19_138
*866 FILLER_0_19_142
*867 FILLER_0_19_150
*868 FILLER_0_19_154
*869 FILLER_0_19_156
*870 FILLER_0_19_175
*871 FILLER_0_19_18
*872 FILLER_0_19_183
*873 FILLER_0_19_187
*874 FILLER_0_19_189
*875 FILLER_0_19_2
*876 FILLER_0_19_209
*877 FILLER_0_19_212
*878 FILLER_0_19_244
*879 FILLER_0_19_260
*880 FILLER_0_19_268
*881 FILLER_0_19_270
*882 FILLER_0_19_279
*883 FILLER_0_19_282
*884 FILLER_0_19_290
*885 FILLER_0_19_299
*886 FILLER_0_19_331
*887 FILLER_0_19_347
*888 FILLER_0_19_349
*889 FILLER_0_19_352
*890 FILLER_0_19_40
*891 FILLER_0_19_56
*892 FILLER_0_19_64
*893 FILLER_0_19_68
*894 FILLER_0_19_72
*895 FILLER_0_19_74
*896 FILLER_0_19_88
*897 FILLER_0_1_126
*898 FILLER_0_1_130
*899 FILLER_0_1_138
*900 FILLER_0_1_142
*901 FILLER_0_1_158
*902 FILLER_0_1_191
*903 FILLER_0_1_195
*904 FILLER_0_1_2
*905 FILLER_0_1_203
*906 FILLER_0_1_207
*907 FILLER_0_1_209
*908 FILLER_0_1_212
*909 FILLER_0_1_276
*910 FILLER_0_1_282
*911 FILLER_0_1_346
*912 FILLER_0_1_352
*913 FILLER_0_1_66
*914 FILLER_0_1_72
*915 FILLER_0_1_88
*916 FILLER_0_1_96
*917 FILLER_0_20_102
*918 FILLER_0_20_104
*919 FILLER_0_20_107
*920 FILLER_0_20_115
*921 FILLER_0_20_119
*922 FILLER_0_20_125
*923 FILLER_0_20_141
*924 FILLER_0_20_145
*925 FILLER_0_20_177
*926 FILLER_0_20_181
*927 FILLER_0_20_197
*928 FILLER_0_20_2
*929 FILLER_0_20_236
*930 FILLER_0_20_240
*931 FILLER_0_20_244
*932 FILLER_0_20_247
*933 FILLER_0_20_251
*934 FILLER_0_20_253
*935 FILLER_0_20_264
*936 FILLER_0_20_275
*937 FILLER_0_20_283
*938 FILLER_0_20_285
*939 FILLER_0_20_317
*940 FILLER_0_20_32
*941 FILLER_0_20_321
*942 FILLER_0_20_34
*943 FILLER_0_20_353
*944 FILLER_0_20_369
*945 FILLER_0_20_377
*946 FILLER_0_20_381
*947 FILLER_0_20_383
*948 FILLER_0_20_45
*949 FILLER_0_20_61
*950 FILLER_0_20_69
*951 FILLER_0_20_73
*952 FILLER_0_20_78
*953 FILLER_0_20_94
*954 FILLER_0_21_103
*955 FILLER_0_21_111
*956 FILLER_0_21_115
*957 FILLER_0_21_133
*958 FILLER_0_21_137
*959 FILLER_0_21_139
*960 FILLER_0_21_142
*961 FILLER_0_21_158
*962 FILLER_0_21_162
*963 FILLER_0_21_171
*964 FILLER_0_21_18
*965 FILLER_0_21_2
*966 FILLER_0_21_203
*967 FILLER_0_21_207
*968 FILLER_0_21_209
*969 FILLER_0_21_212
*970 FILLER_0_21_244
*971 FILLER_0_21_248
*972 FILLER_0_21_26
*973 FILLER_0_21_278
*974 FILLER_0_21_282
*975 FILLER_0_21_286
*976 FILLER_0_21_30
*977 FILLER_0_21_34
*978 FILLER_0_21_352
*979 FILLER_0_21_50
*980 FILLER_0_21_58
*981 FILLER_0_21_72
*982 FILLER_0_21_74
*983 FILLER_0_21_87
*984 FILLER_0_22_100
*985 FILLER_0_22_104
*986 FILLER_0_22_152
*987 FILLER_0_22_168
*988 FILLER_0_22_172
*989 FILLER_0_22_174
*990 FILLER_0_22_177
*991 FILLER_0_22_2
*992 FILLER_0_22_209
*993 FILLER_0_22_211
*994 FILLER_0_22_220
*995 FILLER_0_22_224
*996 FILLER_0_22_240
*997 FILLER_0_22_244
*998 FILLER_0_22_247
*999 FILLER_0_22_251
*1000 FILLER_0_22_263
*1001 FILLER_0_22_295
*1002 FILLER_0_22_311
*1003 FILLER_0_22_317
*1004 FILLER_0_22_333
*1005 FILLER_0_22_34
*1006 FILLER_0_22_341
*1007 FILLER_0_22_345
*1008 FILLER_0_22_347
*1009 FILLER_0_22_37
*1010 FILLER_0_22_379
*1011 FILLER_0_22_383
*1012 FILLER_0_22_53
*1013 FILLER_0_22_57
*1014 FILLER_0_22_59
*1015 FILLER_0_22_92
*1016 FILLER_0_23_113
*1017 FILLER_0_23_121
*1018 FILLER_0_23_123
*1019 FILLER_0_23_126
*1020 FILLER_0_23_134
*1021 FILLER_0_23_138
*1022 FILLER_0_23_142
*1023 FILLER_0_23_150
*1024 FILLER_0_23_154
*1025 FILLER_0_23_161
*1026 FILLER_0_23_193
*1027 FILLER_0_23_2
*1028 FILLER_0_23_201
*1029 FILLER_0_23_205
*1030 FILLER_0_23_207
*1031 FILLER_0_23_228
*1032 FILLER_0_23_244
*1033 FILLER_0_23_259
*1034 FILLER_0_23_275
*1035 FILLER_0_23_279
*1036 FILLER_0_23_282
*1037 FILLER_0_23_298
*1038 FILLER_0_23_306
*1039 FILLER_0_23_310
*1040 FILLER_0_23_34
*1041 FILLER_0_23_340
*1042 FILLER_0_23_344
*1043 FILLER_0_23_348
*1044 FILLER_0_23_352
*1045 FILLER_0_23_360
*1046 FILLER_0_23_364
*1047 FILLER_0_23_366
*1048 FILLER_0_23_371
*1049 FILLER_0_23_379
*1050 FILLER_0_23_383
*1051 FILLER_0_23_42
*1052 FILLER_0_23_56
*1053 FILLER_0_23_64
*1054 FILLER_0_23_68
*1055 FILLER_0_23_72
*1056 FILLER_0_24_101
*1057 FILLER_0_24_123
*1058 FILLER_0_24_125
*1059 FILLER_0_24_145
*1060 FILLER_0_24_153
*1061 FILLER_0_24_165
*1062 FILLER_0_24_173
*1063 FILLER_0_24_177
*1064 FILLER_0_24_2
*1065 FILLER_0_24_231
*1066 FILLER_0_24_239
*1067 FILLER_0_24_243
*1068 FILLER_0_24_247
*1069 FILLER_0_24_311
*1070 FILLER_0_24_317
*1071 FILLER_0_24_333
*1072 FILLER_0_24_34
*1073 FILLER_0_24_341
*1074 FILLER_0_24_347
*1075 FILLER_0_24_357
*1076 FILLER_0_24_37
*1077 FILLER_0_24_373
*1078 FILLER_0_24_381
*1079 FILLER_0_24_383
*1080 FILLER_0_25_126
*1081 FILLER_0_25_133
*1082 FILLER_0_25_137
*1083 FILLER_0_25_139
*1084 FILLER_0_25_150
*1085 FILLER_0_25_154
*1086 FILLER_0_25_178
*1087 FILLER_0_25_182
*1088 FILLER_0_25_2
*1089 FILLER_0_25_208
*1090 FILLER_0_25_212
*1091 FILLER_0_25_228
*1092 FILLER_0_25_258
*1093 FILLER_0_25_274
*1094 FILLER_0_25_278
*1095 FILLER_0_25_287
*1096 FILLER_0_25_295
*1097 FILLER_0_25_297
*1098 FILLER_0_25_310
*1099 FILLER_0_25_312
*1100 FILLER_0_25_323
*1101 FILLER_0_25_331
*1102 FILLER_0_25_335
*1103 FILLER_0_25_352
*1104 FILLER_0_25_363
*1105 FILLER_0_25_37
*1106 FILLER_0_25_379
*1107 FILLER_0_25_383
*1108 FILLER_0_25_41
*1109 FILLER_0_25_57
*1110 FILLER_0_25_6
*1111 FILLER_0_25_65
*1112 FILLER_0_25_69
*1113 FILLER_0_25_72
*1114 FILLER_0_25_80
*1115 FILLER_0_25_82
*1116 FILLER_0_26_102
*1117 FILLER_0_26_104
*1118 FILLER_0_26_107
*1119 FILLER_0_26_115
*1120 FILLER_0_26_119
*1121 FILLER_0_26_121
*1122 FILLER_0_26_165
*1123 FILLER_0_26_173
*1124 FILLER_0_26_177
*1125 FILLER_0_26_185
*1126 FILLER_0_26_194
*1127 FILLER_0_26_196
*1128 FILLER_0_26_199
*1129 FILLER_0_26_2
*1130 FILLER_0_26_215
*1131 FILLER_0_26_231
*1132 FILLER_0_26_239
*1133 FILLER_0_26_243
*1134 FILLER_0_26_253
*1135 FILLER_0_26_257
*1136 FILLER_0_26_261
*1137 FILLER_0_26_292
*1138 FILLER_0_26_296
*1139 FILLER_0_26_310
*1140 FILLER_0_26_314
*1141 FILLER_0_26_317
*1142 FILLER_0_26_349
*1143 FILLER_0_26_353
*1144 FILLER_0_26_369
*1145 FILLER_0_26_37
*1146 FILLER_0_26_377
*1147 FILLER_0_26_381
*1148 FILLER_0_26_383
*1149 FILLER_0_26_41
*1150 FILLER_0_26_43
*1151 FILLER_0_26_56
*1152 FILLER_0_26_72
*1153 FILLER_0_26_76
*1154 FILLER_0_26_94
*1155 FILLER_0_27_134
*1156 FILLER_0_27_138
*1157 FILLER_0_27_142
*1158 FILLER_0_27_150
*1159 FILLER_0_27_154
*1160 FILLER_0_27_156
*1161 FILLER_0_27_159
*1162 FILLER_0_27_191
*1163 FILLER_0_27_2
*1164 FILLER_0_27_207
*1165 FILLER_0_27_209
*1166 FILLER_0_27_212
*1167 FILLER_0_27_228
*1168 FILLER_0_27_236
*1169 FILLER_0_27_240
*1170 FILLER_0_27_244
*1171 FILLER_0_27_248
*1172 FILLER_0_27_264
*1173 FILLER_0_27_272
*1174 FILLER_0_27_276
*1175 FILLER_0_27_290
*1176 FILLER_0_27_322
*1177 FILLER_0_27_326
*1178 FILLER_0_27_336
*1179 FILLER_0_27_34
*1180 FILLER_0_27_344
*1181 FILLER_0_27_360
*1182 FILLER_0_27_376
*1183 FILLER_0_27_50
*1184 FILLER_0_27_54
*1185 FILLER_0_27_63
*1186 FILLER_0_27_67
*1187 FILLER_0_27_69
*1188 FILLER_0_27_72
*1189 FILLER_0_27_88
*1190 FILLER_0_27_96
*1191 FILLER_0_28_107
*1192 FILLER_0_28_148
*1193 FILLER_0_28_152
*1194 FILLER_0_28_168
*1195 FILLER_0_28_172
*1196 FILLER_0_28_174
*1197 FILLER_0_28_177
*1198 FILLER_0_28_193
*1199 FILLER_0_28_2
*1200 FILLER_0_28_201
*1201 FILLER_0_28_208
*1202 FILLER_0_28_212
*1203 FILLER_0_28_228
*1204 FILLER_0_28_242
*1205 FILLER_0_28_244
*1206 FILLER_0_28_255
*1207 FILLER_0_28_259
*1208 FILLER_0_28_291
*1209 FILLER_0_28_299
*1210 FILLER_0_28_310
*1211 FILLER_0_28_314
*1212 FILLER_0_28_317
*1213 FILLER_0_28_321
*1214 FILLER_0_28_337
*1215 FILLER_0_28_34
*1216 FILLER_0_28_341
*1217 FILLER_0_28_353
*1218 FILLER_0_28_383
*1219 FILLER_0_28_45
*1220 FILLER_0_28_49
*1221 FILLER_0_28_57
*1222 FILLER_0_28_61
*1223 FILLER_0_28_63
*1224 FILLER_0_28_70
*1225 FILLER_0_28_86
*1226 FILLER_0_28_90
*1227 FILLER_0_28_92
*1228 FILLER_0_29_119
*1229 FILLER_0_29_133
*1230 FILLER_0_29_137
*1231 FILLER_0_29_139
*1232 FILLER_0_29_161
*1233 FILLER_0_29_18
*1234 FILLER_0_29_196
*1235 FILLER_0_29_2
*1236 FILLER_0_29_204
*1237 FILLER_0_29_208
*1238 FILLER_0_29_212
*1239 FILLER_0_29_220
*1240 FILLER_0_29_224
*1241 FILLER_0_29_24
*1242 FILLER_0_29_254
*1243 FILLER_0_29_258
*1244 FILLER_0_29_274
*1245 FILLER_0_29_278
*1246 FILLER_0_29_282
*1247 FILLER_0_29_327
*1248 FILLER_0_29_343
*1249 FILLER_0_29_345
*1250 FILLER_0_29_348
*1251 FILLER_0_29_352
*1252 FILLER_0_29_40
*1253 FILLER_0_29_49
*1254 FILLER_0_29_65
*1255 FILLER_0_29_69
*1256 FILLER_0_29_72
*1257 FILLER_0_29_80
*1258 FILLER_0_2_101
*1259 FILLER_0_2_107
*1260 FILLER_0_2_123
*1261 FILLER_0_2_127
*1262 FILLER_0_2_166
*1263 FILLER_0_2_174
*1264 FILLER_0_2_177
*1265 FILLER_0_2_193
*1266 FILLER_0_2_2
*1267 FILLER_0_2_201
*1268 FILLER_0_2_234
*1269 FILLER_0_2_238
*1270 FILLER_0_2_242
*1271 FILLER_0_2_244
*1272 FILLER_0_2_276
*1273 FILLER_0_2_280
*1274 FILLER_0_2_312
*1275 FILLER_0_2_314
*1276 FILLER_0_2_317
*1277 FILLER_0_2_34
*1278 FILLER_0_2_37
*1279 FILLER_0_2_381
*1280 FILLER_0_2_383
*1281 FILLER_0_30_101
*1282 FILLER_0_30_107
*1283 FILLER_0_30_111
*1284 FILLER_0_30_134
*1285 FILLER_0_30_138
*1286 FILLER_0_30_148
*1287 FILLER_0_30_164
*1288 FILLER_0_30_191
*1289 FILLER_0_30_2
*1290 FILLER_0_30_207
*1291 FILLER_0_30_225
*1292 FILLER_0_30_241
*1293 FILLER_0_30_247
*1294 FILLER_0_30_255
*1295 FILLER_0_30_259
*1296 FILLER_0_30_291
*1297 FILLER_0_30_299
*1298 FILLER_0_30_306
*1299 FILLER_0_30_310
*1300 FILLER_0_30_312
*1301 FILLER_0_30_317
*1302 FILLER_0_30_324
*1303 FILLER_0_30_332
*1304 FILLER_0_30_336
*1305 FILLER_0_30_338
*1306 FILLER_0_30_34
*1307 FILLER_0_30_347
*1308 FILLER_0_30_360
*1309 FILLER_0_30_37
*1310 FILLER_0_30_376
*1311 FILLER_0_31_119
*1312 FILLER_0_31_123
*1313 FILLER_0_31_125
*1314 FILLER_0_31_128
*1315 FILLER_0_31_136
*1316 FILLER_0_31_151
*1317 FILLER_0_31_18
*1318 FILLER_0_31_185
*1319 FILLER_0_31_2
*1320 FILLER_0_31_201
*1321 FILLER_0_31_209
*1322 FILLER_0_31_212
*1323 FILLER_0_31_276
*1324 FILLER_0_31_282
*1325 FILLER_0_31_286
*1326 FILLER_0_31_290
*1327 FILLER_0_31_322
*1328 FILLER_0_31_338
*1329 FILLER_0_31_346
*1330 FILLER_0_31_352
*1331 FILLER_0_31_360
*1332 FILLER_0_31_376
*1333 FILLER_0_31_38
*1334 FILLER_0_31_83
*1335 FILLER_0_31_87
*1336 FILLER_0_32_10
*1337 FILLER_0_32_102
*1338 FILLER_0_32_104
*1339 FILLER_0_32_115
*1340 FILLER_0_32_12
*1341 FILLER_0_32_123
*1342 FILLER_0_32_127
*1343 FILLER_0_32_129
*1344 FILLER_0_32_140
*1345 FILLER_0_32_144
*1346 FILLER_0_32_154
*1347 FILLER_0_32_170
*1348 FILLER_0_32_174
*1349 FILLER_0_32_177
*1350 FILLER_0_32_185
*1351 FILLER_0_32_189
*1352 FILLER_0_32_2
*1353 FILLER_0_32_219
*1354 FILLER_0_32_223
*1355 FILLER_0_32_239
*1356 FILLER_0_32_243
*1357 FILLER_0_32_247
*1358 FILLER_0_32_255
*1359 FILLER_0_32_294
*1360 FILLER_0_32_298
*1361 FILLER_0_32_300
*1362 FILLER_0_32_309
*1363 FILLER_0_32_313
*1364 FILLER_0_32_317
*1365 FILLER_0_32_333
*1366 FILLER_0_32_341
*1367 FILLER_0_32_347
*1368 FILLER_0_32_351
*1369 FILLER_0_32_363
*1370 FILLER_0_32_379
*1371 FILLER_0_32_383
*1372 FILLER_0_32_48
*1373 FILLER_0_32_52
*1374 FILLER_0_32_56
*1375 FILLER_0_32_98
*1376 FILLER_0_33_103
*1377 FILLER_0_33_111
*1378 FILLER_0_33_119
*1379 FILLER_0_33_123
*1380 FILLER_0_33_167
*1381 FILLER_0_33_171
*1382 FILLER_0_33_18
*1383 FILLER_0_33_2
*1384 FILLER_0_33_203
*1385 FILLER_0_33_207
*1386 FILLER_0_33_209
*1387 FILLER_0_33_218
*1388 FILLER_0_33_222
*1389 FILLER_0_33_238
*1390 FILLER_0_33_240
*1391 FILLER_0_33_243
*1392 FILLER_0_33_253
*1393 FILLER_0_33_257
*1394 FILLER_0_33_273
*1395 FILLER_0_33_277
*1396 FILLER_0_33_279
*1397 FILLER_0_33_287
*1398 FILLER_0_33_303
*1399 FILLER_0_33_307
*1400 FILLER_0_33_317
*1401 FILLER_0_33_326
*1402 FILLER_0_33_330
*1403 FILLER_0_33_340
*1404 FILLER_0_33_352
*1405 FILLER_0_33_383
*1406 FILLER_0_33_40
*1407 FILLER_0_33_44
*1408 FILLER_0_33_60
*1409 FILLER_0_33_86
*1410 FILLER_0_33_88
*1411 FILLER_0_34_101
*1412 FILLER_0_34_115
*1413 FILLER_0_34_167
*1414 FILLER_0_34_171
*1415 FILLER_0_34_177
*1416 FILLER_0_34_193
*1417 FILLER_0_34_2
*1418 FILLER_0_34_201
*1419 FILLER_0_34_203
*1420 FILLER_0_34_216
*1421 FILLER_0_34_232
*1422 FILLER_0_34_247
*1423 FILLER_0_34_299
*1424 FILLER_0_34_317
*1425 FILLER_0_34_34
*1426 FILLER_0_34_350
*1427 FILLER_0_34_366
*1428 FILLER_0_34_37
*1429 FILLER_0_34_371
*1430 FILLER_0_34_379
*1431 FILLER_0_34_383
*1432 FILLER_0_34_53
*1433 FILLER_0_34_61
*1434 FILLER_0_34_71
*1435 FILLER_0_34_81
*1436 FILLER_0_34_85
*1437 FILLER_0_35_132
*1438 FILLER_0_35_136
*1439 FILLER_0_35_142
*1440 FILLER_0_35_150
*1441 FILLER_0_35_182
*1442 FILLER_0_35_198
*1443 FILLER_0_35_2
*1444 FILLER_0_35_209
*1445 FILLER_0_35_212
*1446 FILLER_0_35_228
*1447 FILLER_0_35_230
*1448 FILLER_0_35_260
*1449 FILLER_0_35_264
*1450 FILLER_0_35_272
*1451 FILLER_0_35_276
*1452 FILLER_0_35_282
*1453 FILLER_0_35_333
*1454 FILLER_0_35_349
*1455 FILLER_0_35_352
*1456 FILLER_0_35_66
*1457 FILLER_0_35_72
*1458 FILLER_0_35_76
*1459 FILLER_0_36_136
*1460 FILLER_0_36_140
*1461 FILLER_0_36_172
*1462 FILLER_0_36_174
*1463 FILLER_0_36_177
*1464 FILLER_0_36_193
*1465 FILLER_0_36_2
*1466 FILLER_0_36_201
*1467 FILLER_0_36_215
*1468 FILLER_0_36_231
*1469 FILLER_0_36_239
*1470 FILLER_0_36_243
*1471 FILLER_0_36_247
*1472 FILLER_0_36_279
*1473 FILLER_0_36_281
*1474 FILLER_0_36_301
*1475 FILLER_0_36_309
*1476 FILLER_0_36_323
*1477 FILLER_0_36_331
*1478 FILLER_0_36_341
*1479 FILLER_0_36_37
*1480 FILLER_0_36_373
*1481 FILLER_0_36_381
*1482 FILLER_0_36_383
*1483 FILLER_0_36_41
*1484 FILLER_0_37_114
*1485 FILLER_0_37_130
*1486 FILLER_0_37_138
*1487 FILLER_0_37_142
*1488 FILLER_0_37_174
*1489 FILLER_0_37_190
*1490 FILLER_0_37_198
*1491 FILLER_0_37_2
*1492 FILLER_0_37_208
*1493 FILLER_0_37_220
*1494 FILLER_0_37_252
*1495 FILLER_0_37_268
*1496 FILLER_0_37_272
*1497 FILLER_0_37_311
*1498 FILLER_0_37_315
*1499 FILLER_0_37_347
*1500 FILLER_0_37_349
*1501 FILLER_0_37_352
*1502 FILLER_0_37_39
*1503 FILLER_0_37_43
*1504 FILLER_0_37_65
*1505 FILLER_0_37_72
*1506 FILLER_0_37_82
*1507 FILLER_0_38_103
*1508 FILLER_0_38_107
*1509 FILLER_0_38_171
*1510 FILLER_0_38_177
*1511 FILLER_0_38_2
*1512 FILLER_0_38_241
*1513 FILLER_0_38_253
*1514 FILLER_0_38_269
*1515 FILLER_0_38_277
*1516 FILLER_0_38_281
*1517 FILLER_0_38_297
*1518 FILLER_0_38_313
*1519 FILLER_0_38_317
*1520 FILLER_0_38_333
*1521 FILLER_0_38_34
*1522 FILLER_0_38_341
*1523 FILLER_0_38_345
*1524 FILLER_0_38_347
*1525 FILLER_0_38_362
*1526 FILLER_0_38_366
*1527 FILLER_0_38_37
*1528 FILLER_0_38_382
*1529 FILLER_0_38_45
*1530 FILLER_0_38_75
*1531 FILLER_0_38_87
*1532 FILLER_0_38_91
*1533 FILLER_0_38_99
*1534 FILLER_0_39_104
*1535 FILLER_0_39_108
*1536 FILLER_0_39_110
*1537 FILLER_0_39_117
*1538 FILLER_0_39_133
*1539 FILLER_0_39_137
*1540 FILLER_0_39_139
*1541 FILLER_0_39_142
*1542 FILLER_0_39_150
*1543 FILLER_0_39_154
*1544 FILLER_0_39_156
*1545 FILLER_0_39_161
*1546 FILLER_0_39_193
*1547 FILLER_0_39_2
*1548 FILLER_0_39_209
*1549 FILLER_0_39_212
*1550 FILLER_0_39_276
*1551 FILLER_0_39_282
*1552 FILLER_0_39_314
*1553 FILLER_0_39_324
*1554 FILLER_0_39_340
*1555 FILLER_0_39_352
*1556 FILLER_0_39_383
*1557 FILLER_0_39_66
*1558 FILLER_0_39_72
*1559 FILLER_0_3_106
*1560 FILLER_0_3_110
*1561 FILLER_0_3_126
*1562 FILLER_0_3_134
*1563 FILLER_0_3_138
*1564 FILLER_0_3_171
*1565 FILLER_0_3_175
*1566 FILLER_0_3_2
*1567 FILLER_0_3_207
*1568 FILLER_0_3_209
*1569 FILLER_0_3_212