*SPEF "ieee 1481-1999"
*DESIGN "diceroll"
*DATE "12:45:49 Thursday July 31, 2025"
*VENDOR "The OpenROAD Project"
*PROGRAM "OpenROAD"
*VERSION "b16bda7e82721d10566ff7e2b68f1ff0be9f9e38"
*DESIGN_FLOW "NAME_SCOPE LOCAL" "PIN_CAP NONE"
*DIVIDER /
*DELIMITER :
*BUS_DELIMITER []
*T_UNIT 1 NS
*C_UNIT 1 PF
*R_UNIT 1 OHM
*L_UNIT 1 HENRY

*NAME_MAP
*1 io_in
*2 io_out[0]
*3 io_out[1]
*4 io_out[2]
*5 io_out[3]
*6 io_out[4]
*7 io_out[5]
*8 io_out[6]
*9 io_out[7]
*10 io_out[8]
*11 rst_n
*14 wb_clk_i
*15 _000_
*16 _001_
*17 _002_
*18 _003_
*19 _004_
*20 _005_
*21 _006_
*22 _007_
*23 _008_
*24 _009_
*25 _010_
*26 _011_
*27 _012_
*28 _013_
*29 _014_
*30 _015_
*31 _016_
*32 _017_
*33 _018_
*34 _019_
*35 _020_
*36 _021_
*37 _022_
*38 _023_
*39 _024_
*40 _025_
*41 _026_
*42 _027_
*43 _028_
*44 _029_
*45 _030_
*46 _031_
*47 _032_
*48 _033_
*49 _034_
*50 _035_
*51 _036_
*52 _037_
*53 _038_
*54 _039_
*55 _040_
*56 _041_
*57 _042_
*58 _043_
*59 _044_
*60 _045_
*61 _046_
*62 _047_
*63 _048_
*64 _049_
*65 _050_
*66 _051_
*67 _052_
*68 _053_
*69 _054_
*70 _055_
*71 _056_
*72 _057_
*73 _058_
*74 _059_
*75 _060_
*76 _061_
*77 _062_
*78 _063_
*79 _064_
*80 _065_
*81 _066_
*82 _067_
*83 _068_
*84 _069_
*85 _070_
*86 _071_
*87 _072_
*88 _073_
*89 _074_
*90 _075_
*91 _076_
*92 _077_
*93 _078_
*94 _079_
*95 _080_
*96 _081_
*97 _082_
*98 _083_
*99 _084_
*100 _085_
*101 _086_
*102 _087_
*103 _088_
*104 _089_
*105 _090_
*106 _091_
*107 _092_
*108 _093_
*109 _094_
*110 _095_
*111 _096_
*112 _097_
*113 _098_
*114 _099_
*115 _100_
*116 _101_
*117 _102_
*118 _103_
*119 _104_
*120 _105_
*121 _106_
*122 _107_
*123 _108_
*124 _109_
*125 _110_
*126 _111_
*127 _112_
*128 _113_
*129 _114_
*130 _115_
*131 _116_
*132 _117_
*133 _118_
*134 _119_
*135 _120_
*136 _121_
*137 _122_
*138 _123_
*139 _124_
*140 _125_
*141 _126_
*142 _127_
*143 _128_
*144 _129_
*145 _130_
*146 _131_
*147 _132_
*148 _133_
*149 _134_
*150 _135_
*151 _136_
*152 _137_
*153 _138_
*154 _139_
*155 _140_
*156 _141_
*157 _142_
*158 _143_
*159 _144_
*160 _145_
*161 _146_
*162 _147_
*163 _148_
*164 _149_
*165 _150_
*166 _151_
*167 _152_
*168 _153_
*169 _154_
*170 _155_
*171 _156_
*172 _157_
*173 _158_
*174 _159_
*175 _160_
*176 _161_
*177 _162_
*178 _163_
*179 _164_
*180 _165_
*181 _166_
*182 _167_
*183 _168_
*184 _169_
*185 _170_
*186 _171_
*187 _172_
*188 _173_
*189 _174_
*190 _175_
*191 _176_
*192 _177_
*193 _178_
*194 _179_
*195 _180_
*196 _181_
*197 _182_
*198 _183_
*199 _184_
*200 _185_
*201 _186_
*202 _187_
*203 _188_
*204 _189_
*205 _190_
*206 _191_
*207 _192_
*208 _193_
*209 _194_
*210 _195_
*211 _196_
*212 _197_
*213 _198_
*214 _199_
*215 _200_
*216 _201_
*217 _202_
*218 _203_
*219 _204_
*220 _205_
*221 _206_
*222 _207_
*223 _208_
*224 _209_
*225 _210_
*226 _211_
*227 _212_
*228 _213_
*229 _214_
*230 _215_
*231 _216_
*232 _217_
*233 _218_
*234 _219_
*235 _220_
*236 _221_
*237 _222_
*238 _223_
*239 _224_
*240 _225_
*241 _226_
*242 _227_
*243 _228_
*244 _229_
*245 _230_
*246 _231_
*247 _232_
*248 _233_
*249 _234_
*250 _235_
*251 _236_
*252 _237_
*253 _238_
*254 _239_
*255 _240_
*256 _241_
*257 _242_
*258 _243_
*259 _244_
*260 _245_
*261 _246_
*262 _247_
*263 _248_
*264 _249_
*265 _250_
*266 _251_
*267 _252_
*268 _253_
*269 _254_
*270 _255_
*271 _256_
*272 _257_
*273 _258_
*274 _259_
*275 _260_
*276 _261_
*277 _262_
*278 _263_
*279 _264_
*280 _265_
*281 _266_
*282 _267_
*283 _268_
*284 _269_
*285 _270_
*286 _271_
*287 _272_
*288 _273_
*289 _274_
*290 _275_
*291 _276_
*292 _277_
*293 _278_
*294 _279_
*295 _280_
*296 _281_
*297 _282_
*298 _283_
*299 _284_
*300 _285_
*301 _286_
*302 _287_
*303 _288_
*304 _289_
*305 _290_
*306 _291_
*307 _292_
*308 _293_
*309 _294_
*310 _295_
*311 _296_
*312 _297_
*313 _298_
*314 _299_
*315 _300_
*316 _301_
*317 _302_
*318 _303_
*319 _304_
*320 _305_
*321 _306_
*322 _307_
*323 _308_
*324 _309_
*325 _310_
*326 _311_
*327 _312_
*328 _313_
*329 _314_
*330 _315_
*331 _316_
*332 _317_
*333 _318_
*334 _319_
*335 _320_
*336 _321_
*337 _322_
*338 _323_
*339 _324_
*340 _325_
*341 _326_
*342 _327_
*343 _328_
*344 _329_
*345 _330_
*346 _331_
*347 _332_
*348 _333_
*349 _334_
*350 _335_
*351 _336_
*352 _337_
*353 _338_
*354 _339_
*355 _340_
*356 _341_
*357 _342_
*358 _343_
*359 _344_
*360 _345_
*361 _346_
*362 _347_
*363 _348_
*364 _349_
*365 _350_
*366 _351_
*367 _352_
*368 _353_
*369 _354_
*370 _355_
*371 _356_
*372 _357_
*373 _358_
*374 _359_
*375 _360_
*376 _361_
*377 _362_
*378 _363_
*379 _364_
*380 _365_
*381 _366_
*382 bcd\[0\]
*383 bcd\[1\]
*384 bcd\[2\]
*385 clkdiv\[0\]
*386 clkdiv\[1\]
*387 clkdiv\[2\]
*388 clkdiv\[3\]
*389 clkdiv\[4\]
*390 clkdiv\[5\]
*391 clkdiv\[6\]
*392 clkdiv\[7\]
*393 clknet_0_wb_clk_i
*394 clknet_3_0__leaf_wb_clk_i
*395 clknet_3_1__leaf_wb_clk_i
*396 clknet_3_2__leaf_wb_clk_i
*397 clknet_3_3__leaf_wb_clk_i
*398 clknet_3_4__leaf_wb_clk_i
*399 clknet_3_5__leaf_wb_clk_i
*400 clknet_3_6__leaf_wb_clk_i
*401 clknet_3_7__leaf_wb_clk_i
*402 counter\[0\]
*403 counter\[10\]
*404 counter\[11\]
*405 counter\[12\]
*406 counter\[13\]
*407 counter\[14\]
*408 counter\[15\]
*409 counter\[1\]
*410 counter\[2\]
*411 counter\[3\]
*412 counter\[4\]
*413 counter\[5\]
*414 counter\[6\]
*415 counter\[7\]
*416 counter\[8\]
*417 counter\[9\]
*418 dp
*419 lfsr\[0\]
*420 lfsr\[10\]
*421 lfsr\[11\]
*422 lfsr\[12\]
*423 lfsr\[13\]
*424 lfsr\[14\]
*425 lfsr\[15\]
*426 lfsr\[1\]
*427 lfsr\[2\]
*428 lfsr\[3\]
*429 lfsr\[4\]
*430 lfsr\[5\]
*431 lfsr\[6\]
*432 lfsr\[7\]
*433 lfsr\[8\]
*434 lfsr\[9\]
*435 m_clkdiv\[0\]
*436 m_clkdiv\[1\]
*437 m_clkdiv\[2\]
*438 m_clkdiv\[3\]
*439 m_clkdiv\[4\]
*440 m_clkdiv\[5\]
*441 m_clkdiv\[6\]
*442 m_clkdiv\[7\]
*443 m_clkdiv\[8\]
*444 m_clkdiv\[9\]
*445 net1
*446 net10
*447 net11
*448 net2
*449 net3
*450 net4
*451 net5
*452 net6
*453 net7
*454 net8
*455 net9
*456 r_counter\[0\]
*457 r_counter\[1\]
*458 r_counter\[2\]
*459 ANTENNA__367__A
*460 ANTENNA__385__A
*461 ANTENNA__399__A
*462 ANTENNA__400__A
*463 ANTENNA__406__B
*464 ANTENNA__409__D
*465 ANTENNA__429__A
*466 ANTENNA__432__B
*467 ANTENNA__434__B
*468 ANTENNA__436__B
*469 ANTENNA__442__A
*470 ANTENNA__447__C
*471 ANTENNA__452__A
*472 ANTENNA__456__A
*473 ANTENNA__471__A
*474 ANTENNA__472__B
*475 ANTENNA__474__A
*476 ANTENNA__476__A
*477 ANTENNA__480__A
*478 ANTENNA__484__A
*479 ANTENNA__494__C
*480 ANTENNA__498__A
*481 ANTENNA__502__A
*482 ANTENNA__510__A
*483 ANTENNA__512__A
*484 ANTENNA__514__B
*485 ANTENNA__519__A
*486 ANTENNA__521__D
*487 ANTENNA__525__A
*488 ANTENNA__526__D
*489 ANTENNA__529__A
*490 ANTENNA__530__A
*491 ANTENNA__531__A
*492 ANTENNA__536__A
*493 ANTENNA__542__A
*494 ANTENNA__546__B
*495 ANTENNA__547__A
*496 ANTENNA__564__A
*497 ANTENNA__565__A
*498 ANTENNA__573__A
*499 ANTENNA__577__A
*500 ANTENNA__584__D
*501 ANTENNA__588__B
*502 ANTENNA__589__A
*503 ANTENNA__593__A
*504 ANTENNA__598__A
*505 ANTENNA__602__A
*506 ANTENNA__606__A
*507 ANTENNA__608__A
*508 ANTENNA__610__B
*509 ANTENNA__611__B
*510 ANTENNA__611__D
*511 ANTENNA__618__A
*512 ANTENNA__620__B
*513 ANTENNA__620__C
*514 ANTENNA__625__C
*515 ANTENNA__628__B
*516 ANTENNA__634__D
*517 ANTENNA__635__C
*518 ANTENNA__641__B
*519 ANTENNA__641__D
*520 ANTENNA__642__C
*521 ANTENNA__644__A
*522 ANTENNA__660__D
*523 ANTENNA__664__B
*524 ANTENNA__672__A
*525 ANTENNA__675__B
*526 ANTENNA__676__C
*527 ANTENNA__682__B
*528 ANTENNA__682__D
*529 ANTENNA__683__B
*530 ANTENNA__684__B
*531 ANTENNA__689__A
*532 ANTENNA__692__A
*533 ANTENNA__693__B
*534 ANTENNA__699__B
*535 ANTENNA__701__A
*536 ANTENNA__706__C
*537 ANTENNA__711__B
*538 ANTENNA__715__D
*539 ANTENNA__716__B
*540 ANTENNA__718__B
*541 ANTENNA__719__B
*542 ANTENNA__720__A
*543 ANTENNA__727__D
*544 ANTENNA__729__B
*545 ANTENNA__731__A
*546 ANTENNA__731__C
*547 ANTENNA__732__C
*548 ANTENNA__736__CLK
*549 ANTENNA__737__CLK
*550 ANTENNA__738__CLK
*551 ANTENNA__739__CLK
*552 ANTENNA__741__CLK
*553 ANTENNA__742__CLK
*554 ANTENNA__743__CLK
*555 ANTENNA__744__CLK
*556 ANTENNA__745__CLK
*557 ANTENNA__746__CLK
*558 ANTENNA__747__CLK
*559 ANTENNA__748__CLK
*560 ANTENNA__749__CLK
*561 ANTENNA__750__CLK
*562 ANTENNA__751__CLK
*563 ANTENNA__752__CLK
*564 ANTENNA__753__CLK
*565 ANTENNA__754__CLK
*566 ANTENNA__755__CLK
*567 ANTENNA__756__CLK
*568 ANTENNA__757__CLK
*569 ANTENNA__758__CLK
*570 ANTENNA__759__CLK
*571 ANTENNA__760__CLK
*572 ANTENNA__761__CLK
*573 ANTENNA__762__CLK
*574 ANTENNA__763__CLK
*575 ANTENNA__764__CLK
*576 ANTENNA__765__CLK
*577 ANTENNA__766__CLK
*578 ANTENNA__767__CLK
*579 ANTENNA__768__CLK
*580 ANTENNA__769__CLK
*581 ANTENNA__770__CLK
*582 ANTENNA__771__CLK
*583 ANTENNA__772__CLK
*584 ANTENNA__773__CLK
*585 ANTENNA__774__CLK
*586 ANTENNA__775__CLK
*587 ANTENNA__776__CLK
*588 ANTENNA__777__CLK
*589 ANTENNA__778__CLK
*590 ANTENNA__779__CLK
*591 ANTENNA__780__CLK
*592 ANTENNA__781__CLK
*593 ANTENNA__782__CLK
*594 ANTENNA__783__CLK
*595 ANTENNA__784__CLK
*596 ANTENNA__785__CLK
*597 ANTENNA__786__CLK
*598 ANTENNA__787__CLK
*599 ANTENNA__788__CLK
*600 ANTENNA__789__CLK
*601 ANTENNA__791__CLK
*602 ANTENNA__794__CLK
*603 ANTENNA__795__CLK
*604 ANTENNA__796__CLK
*605 ANTENNA__797__CLK
*606 ANTENNA__799__A
*607 ANTENNA_clkbuf_0_wb_clk_i_A
*608 ANTENNA_clkbuf_3_0__f_wb_clk_i_A
*609 ANTENNA_clkbuf_3_1__f_wb_clk_i_A
*610 ANTENNA_clkbuf_3_2__f_wb_clk_i_A
*611 ANTENNA_clkbuf_3_3__f_wb_clk_i_A
*612 ANTENNA_clkbuf_3_4__f_wb_clk_i_A
*613 ANTENNA_clkbuf_3_5__f_wb_clk_i_A
*614 ANTENNA_clkbuf_3_6__f_wb_clk_i_A
*615 ANTENNA_clkbuf_3_7__f_wb_clk_i_A
*616 ANTENNA_clkload0_A
*617 ANTENNA_clkload1_A
*618 ANTENNA_clkload2_A
*619 ANTENNA_clkload4_A
*620 ANTENNA_clkload5_A
*621 ANTENNA_input1_A
*622 ANTENNA_input2_A
*623 FILLER_0_0_104
*624 FILLER_0_0_120
*625 FILLER_0_0_138
*626 FILLER_0_0_154
*627 FILLER_0_0_172
*628 FILLER_0_0_18
*629 FILLER_0_0_188
*630 FILLER_0_0_2
*631 FILLER_0_0_206
*632 FILLER_0_0_222
*633 FILLER_0_0_240
*634 FILLER_0_0_256
*635 FILLER_0_0_274
*636 FILLER_0_0_290
*637 FILLER_0_0_308
*638 FILLER_0_0_324
*639 FILLER_0_0_342
*640 FILLER_0_0_358
*641 FILLER_0_0_36
*642 FILLER_0_0_376
*643 FILLER_0_0_52
*644 FILLER_0_0_70
*645 FILLER_0_0_86
*646 FILLER_0_10_102
*647 FILLER_0_10_104
*648 FILLER_0_10_107
*649 FILLER_0_10_123
*650 FILLER_0_10_139
*651 FILLER_0_10_155
*652 FILLER_0_10_170
*653 FILLER_0_10_174
*654 FILLER_0_10_177
*655 FILLER_0_10_18
*656 FILLER_0_10_193
*657 FILLER_0_10_2
*658 FILLER_0_10_209
*659 FILLER_0_10_225
*660 FILLER_0_10_233
*661 FILLER_0_10_243
*662 FILLER_0_10_247
*663 FILLER_0_10_25
*664 FILLER_0_10_263
*665 FILLER_0_10_279
*666 FILLER_0_10_295
*667 FILLER_0_10_311
*668 FILLER_0_10_317
*669 FILLER_0_10_325
*670 FILLER_0_10_329
*671 FILLER_0_10_33
*672 FILLER_0_10_336
*673 FILLER_0_10_37
*674 FILLER_0_10_381
*675 FILLER_0_10_383
*676 FILLER_0_10_45
*677 FILLER_0_10_58
*678 FILLER_0_10_74
*679 FILLER_0_10_90
*680 FILLER_0_10_98
*681 FILLER_0_11_113
*682 FILLER_0_11_129
*683 FILLER_0_11_137
*684 FILLER_0_11_142
*685 FILLER_0_11_177
*686 FILLER_0_11_181
*687 FILLER_0_11_197
*688 FILLER_0_11_2
*689 FILLER_0_11_205
*690 FILLER_0_11_209
*691 FILLER_0_11_212
*692 FILLER_0_11_228
*693 FILLER_0_11_244
*694 FILLER_0_11_260
*695 FILLER_0_11_276
*696 FILLER_0_11_282
*697 FILLER_0_11_298
*698 FILLER_0_11_314
*699 FILLER_0_11_330
*700 FILLER_0_11_342
*701 FILLER_0_11_35
*702 FILLER_0_11_352
*703 FILLER_0_11_354
*704 FILLER_0_11_361
*705 FILLER_0_11_377
*706 FILLER_0_11_381
*707 FILLER_0_11_383
*708 FILLER_0_11_39
*709 FILLER_0_11_55
*710 FILLER_0_11_6
*711 FILLER_0_11_63
*712 FILLER_0_11_67
*713 FILLER_0_11_69
*714 FILLER_0_11_72
*715 FILLER_0_11_88
*716 FILLER_0_11_96
*717 FILLER_0_11_98
*718 FILLER_0_12_111
*719 FILLER_0_12_115
*720 FILLER_0_12_131
*721 FILLER_0_12_139
*722 FILLER_0_12_143
*723 FILLER_0_12_173
*724 FILLER_0_12_18
*725 FILLER_0_12_188
*726 FILLER_0_12_2
*727 FILLER_0_12_204
*728 FILLER_0_12_220
*729 FILLER_0_12_236
*730 FILLER_0_12_244
*731 FILLER_0_12_247
*732 FILLER_0_12_263
*733 FILLER_0_12_279
*734 FILLER_0_12_287
*735 FILLER_0_12_291
*736 FILLER_0_12_293
*737 FILLER_0_12_300
*738 FILLER_0_12_308
*739 FILLER_0_12_312
*740 FILLER_0_12_314
*741 FILLER_0_12_317
*742 FILLER_0_12_325
*743 FILLER_0_12_327
*744 FILLER_0_12_335
*745 FILLER_0_12_34
*746 FILLER_0_12_353
*747 FILLER_0_12_369
*748 FILLER_0_12_37
*749 FILLER_0_12_377
*750 FILLER_0_12_381
*751 FILLER_0_12_383
*752 FILLER_0_12_45
*753 FILLER_0_12_49
*754 FILLER_0_12_74
*755 FILLER_0_12_82
*756 FILLER_0_12_86
*757 FILLER_0_13_125
*758 FILLER_0_13_129
*759 FILLER_0_13_137
*760 FILLER_0_13_139
*761 FILLER_0_13_142
*762 FILLER_0_13_158
*763 FILLER_0_13_18
*764 FILLER_0_13_183
*765 FILLER_0_13_199
*766 FILLER_0_13_2
*767 FILLER_0_13_207
*768 FILLER_0_13_209
*769 FILLER_0_13_212
*770 FILLER_0_13_228
*771 FILLER_0_13_244
*772 FILLER_0_13_260
*773 FILLER_0_13_276
*774 FILLER_0_13_282
*775 FILLER_0_13_286
*776 FILLER_0_13_315
*777 FILLER_0_13_319
*778 FILLER_0_13_335
*779 FILLER_0_13_34
*780 FILLER_0_13_343
*781 FILLER_0_13_347
*782 FILLER_0_13_349
*783 FILLER_0_13_352
*784 FILLER_0_13_368
*785 FILLER_0_13_50
*786 FILLER_0_13_66
*787 FILLER_0_13_72
*788 FILLER_0_13_80
*789 FILLER_0_14_101
*790 FILLER_0_14_107
*791 FILLER_0_14_140
*792 FILLER_0_14_144
*793 FILLER_0_14_160
*794 FILLER_0_14_168
*795 FILLER_0_14_171
*796 FILLER_0_14_177
*797 FILLER_0_14_18
*798 FILLER_0_14_193
*799 FILLER_0_14_2
*800 FILLER_0_14_201
*801 FILLER_0_14_205
*802 FILLER_0_14_207
*803 FILLER_0_14_214
*804 FILLER_0_14_218
*805 FILLER_0_14_226
*806 FILLER_0_14_235
*807 FILLER_0_14_241
*808 FILLER_0_14_247
*809 FILLER_0_14_253
*810 FILLER_0_14_281
*811 FILLER_0_14_285
*812 FILLER_0_14_302
*813 FILLER_0_14_310
*814 FILLER_0_14_314
*815 FILLER_0_14_317
*816 FILLER_0_14_325
*817 FILLER_0_14_329
*818 FILLER_0_14_34
*819 FILLER_0_14_341
*820 FILLER_0_14_345
*821 FILLER_0_14_37
*822 FILLER_0_14_382
*823 FILLER_0_14_60
*824 FILLER_0_14_78
*825 FILLER_0_15_101
*826 FILLER_0_15_105
*827 FILLER_0_15_109
*828 FILLER_0_15_142
*829 FILLER_0_15_146
*830 FILLER_0_15_162
*831 FILLER_0_15_178
*832 FILLER_0_15_18
*833 FILLER_0_15_194
*834 FILLER_0_15_2
*835 FILLER_0_15_246
*836 FILLER_0_15_251
*837 FILLER_0_15_26
*838 FILLER_0_15_276
*839 FILLER_0_15_282
*840 FILLER_0_15_290
*841 FILLER_0_15_292
*842 FILLER_0_15_302
*843 FILLER_0_15_318
*844 FILLER_0_15_336
*845 FILLER_0_15_352
*846 FILLER_0_15_368
*847 FILLER_0_15_55
*848 FILLER_0_15_59
*849 FILLER_0_15_67
*850 FILLER_0_15_69
*851 FILLER_0_16_101
*852 FILLER_0_16_107
*853 FILLER_0_16_115
*854 FILLER_0_16_119
*855 FILLER_0_16_127
*856 FILLER_0_16_143
*857 FILLER_0_16_159
*858 FILLER_0_16_177
*859 FILLER_0_16_18
*860 FILLER_0_16_181
*861 FILLER_0_16_189
*862 FILLER_0_16_2
*863 FILLER_0_16_201
*864 FILLER_0_16_209
*865 FILLER_0_16_212
*866 FILLER_0_16_228
*867 FILLER_0_16_272
*868 FILLER_0_16_288
*869 FILLER_0_16_304
*870 FILLER_0_16_312
*871 FILLER_0_16_314
*872 FILLER_0_16_317
*873 FILLER_0_16_333
*874 FILLER_0_16_335
*875 FILLER_0_16_34
*876 FILLER_0_16_342
*877 FILLER_0_16_358
*878 FILLER_0_16_37
*879 FILLER_0_16_374
*880 FILLER_0_16_382
*881 FILLER_0_16_53
*882 FILLER_0_16_69
*883 FILLER_0_16_85
*884 FILLER_0_17_104
*885 FILLER_0_17_112
*886 FILLER_0_17_116
*887 FILLER_0_17_124
*888 FILLER_0_17_142
*889 FILLER_0_17_158
*890 FILLER_0_17_166
*891 FILLER_0_17_168
*892 FILLER_0_17_179
*893 FILLER_0_17_18
*894 FILLER_0_17_189
*895 FILLER_0_17_2
*896 FILLER_0_17_205
*897 FILLER_0_17_209
*898 FILLER_0_17_212
*899 FILLER_0_17_228
*900 FILLER_0_17_236
*901 FILLER_0_17_251
*902 FILLER_0_17_267
*903 FILLER_0_17_275
*904 FILLER_0_17_279
*905 FILLER_0_17_282
*906 FILLER_0_17_286
*907 FILLER_0_17_296
*908 FILLER_0_17_312
*909 FILLER_0_17_320
*910 FILLER_0_17_324
*911 FILLER_0_17_332
*912 FILLER_0_17_334
*913 FILLER_0_17_34
*914 FILLER_0_17_345
*915 FILLER_0_17_349
*916 FILLER_0_17_352
*917 FILLER_0_17_368
*918 FILLER_0_17_50
*919 FILLER_0_17_66
*920 FILLER_0_17_72
*921 FILLER_0_17_88
*922 FILLER_0_18_102
*923 FILLER_0_18_104
*924 FILLER_0_18_107
*925 FILLER_0_18_111
*926 FILLER_0_18_113
*927 FILLER_0_18_130
*928 FILLER_0_18_138
*929 FILLER_0_18_142
*930 FILLER_0_18_149
*931 FILLER_0_18_165
*932 FILLER_0_18_173
*933 FILLER_0_18_18
*934 FILLER_0_18_184
*935 FILLER_0_18_188
*936 FILLER_0_18_2
*937 FILLER_0_18_204
*938 FILLER_0_18_220
*939 FILLER_0_18_228
*940 FILLER_0_18_234
*941 FILLER_0_18_242
*942 FILLER_0_18_244
*943 FILLER_0_18_247
*944 FILLER_0_18_263
*945 FILLER_0_18_279
*946 FILLER_0_18_310
*947 FILLER_0_18_314
*948 FILLER_0_18_317
*949 FILLER_0_18_330
*950 FILLER_0_18_34
*951 FILLER_0_18_346
*952 FILLER_0_18_350
*953 FILLER_0_18_37
*954 FILLER_0_18_380
*955 FILLER_0_18_53
*956 FILLER_0_18_57
*957 FILLER_0_18_86
*958 FILLER_0_18_90
*959 FILLER_0_18_98
*960 FILLER_0_19_106
*961 FILLER_0_19_110
*962 FILLER_0_19_112
*963 FILLER_0_19_139
*964 FILLER_0_19_148
*965 FILLER_0_19_164
*966 FILLER_0_19_178
*967 FILLER_0_19_18
*968 FILLER_0_19_182
*969 FILLER_0_19_198
*970 FILLER_0_19_2
*971 FILLER_0_19_206
*972 FILLER_0_19_212
*973 FILLER_0_19_220
*974 FILLER_0_19_241
*975 FILLER_0_19_243
*976 FILLER_0_19_253
*977 FILLER_0_19_255
*978 FILLER_0_19_270
*979 FILLER_0_19_278
*980 FILLER_0_19_282
*981 FILLER_0_19_311
*982 FILLER_0_19_315
*983 FILLER_0_19_34
*984 FILLER_0_19_343
*985 FILLER_0_19_347
*986 FILLER_0_19_349
*987 FILLER_0_19_352
*988 FILLER_0_19_358
*989 FILLER_0_19_374
*990 FILLER_0_19_382
*991 FILLER_0_19_50
*992 FILLER_0_19_66
*993 FILLER_0_19_78
*994 FILLER_0_19_82
*995 FILLER_0_19_98
*996 FILLER_0_1_104
*997 FILLER_0_1_120
*998 FILLER_0_1_136
*999 FILLER_0_1_142
*1000 FILLER_0_1_158
*1001 FILLER_0_1_162
*1002 FILLER_0_1_164
*1003 FILLER_0_1_172
*1004 FILLER_0_1_18
*1005 FILLER_0_1_188
*1006 FILLER_0_1_196
*1007 FILLER_0_1_2
*1008 FILLER_0_1_200
*1009 FILLER_0_1_207
*1010 FILLER_0_1_209
*1011 FILLER_0_1_212
*1012 FILLER_0_1_255
*1013 FILLER_0_1_259
*1014 FILLER_0_1_275
*1015 FILLER_0_1_279
*1016 FILLER_0_1_282
*1017 FILLER_0_1_298
*1018 FILLER_0_1_314
*1019 FILLER_0_1_330
*1020 FILLER_0_1_34
*1021 FILLER_0_1_346
*1022 FILLER_0_1_352
*1023 FILLER_0_1_368
*1024 FILLER_0_1_50
*1025 FILLER_0_1_52
*1026 FILLER_0_1_59
*1027 FILLER_0_1_67
*1028 FILLER_0_1_69
*1029 FILLER_0_1_72
*1030 FILLER_0_1_88
*1031 FILLER_0_20_107
*1032 FILLER_0_20_123
*1033 FILLER_0_20_139
*1034 FILLER_0_20_143
*1035 FILLER_0_20_145
*1036 FILLER_0_20_177
*1037 FILLER_0_20_193
*1038 FILLER_0_20_2
*1039 FILLER_0_20_209
*1040 FILLER_0_20_223
*1041 FILLER_0_20_239
*1042 FILLER_0_20_243
*1043 FILLER_0_20_247
*1044 FILLER_0_20_263
*1045 FILLER_0_20_279
*1046 FILLER_0_20_295
*1047 FILLER_0_20_309
*1048 FILLER_0_20_31
*1049 FILLER_0_20_313
*1050 FILLER_0_20_317
*1051 FILLER_0_20_333
*1052 FILLER_0_20_337
*1053 FILLER_0_20_344
*1054 FILLER_0_20_348
*1055 FILLER_0_20_350
*1056 FILLER_0_20_361
*1057 FILLER_0_20_37
*1058 FILLER_0_20_377
*1059 FILLER_0_20_381
*1060 FILLER_0_20_383
*1061 FILLER_0_20_53
*1062 FILLER_0_20_80
*1063 FILLER_0_20_82
*1064 FILLER_0_20_89
*1065 FILLER_0_21_10
*1066 FILLER_0_21_102
*1067 FILLER_0_21_118
*1068 FILLER_0_21_134
*1069 FILLER_0_21_138
*1070 FILLER_0_21_142
*1071 FILLER_0_21_158
*1072 FILLER_0_21_174
*1073 FILLER_0_21_190
*1074 FILLER_0_21_2
*1075 FILLER_0_21_20
*1076 FILLER_0_21_206
*1077 FILLER_0_21_245
*1078 FILLER_0_21_249
*1079 FILLER_0_21_265
*1080 FILLER_0_21_273
*1081 FILLER_0_21_278
*1082 FILLER_0_21_286
*1083 FILLER_0_21_302
*1084 FILLER_0_21_315
*1085 FILLER_0_21_331
*1086 FILLER_0_21_347
*1087 FILLER_0_21_349
*1088 FILLER_0_21_35
*1089 FILLER_0_21_352
*1090 FILLER_0_21_368
*1091 FILLER_0_21_46
*1092 FILLER_0_21_62
*1093 FILLER_0_21_72
*1094 FILLER_0_21_80
*1095 FILLER_0_21_98
*1096 FILLER_0_22_114
*1097 FILLER_0_22_130
*1098 FILLER_0_22_146
*1099 FILLER_0_22_162
*1100 FILLER_0_22_170
*1101 FILLER_0_22_174
*1102 FILLER_0_22_177
*1103 FILLER_0_22_18
*1104 FILLER_0_22_2
*1105 FILLER_0_22_208
*1106 FILLER_0_22_212
*1107 FILLER_0_22_228
*1108 FILLER_0_22_244
*1109 FILLER_0_22_254
*1110 FILLER_0_22_270
*1111 FILLER_0_22_286
*1112 FILLER_0_22_302
*1113 FILLER_0_22_310
*1114 FILLER_0_22_314
*1115 FILLER_0_22_317
*1116 FILLER_0_22_333
*1117 FILLER_0_22_34
*1118 FILLER_0_22_349
*1119 FILLER_0_22_361
*1120 FILLER_0_22_377
*1121 FILLER_0_22_381
*1122 FILLER_0_22_383
*1123 FILLER_0_22_44
*1124 FILLER_0_22_60
*1125 FILLER_0_22_76
*1126 FILLER_0_22_84
*1127 FILLER_0_22_88
*1128 FILLER_0_22_97
*1129 FILLER_0_23_101
*1130 FILLER_0_23_117
*1131 FILLER_0_23_125
*1132 FILLER_0_23_142
*1133 FILLER_0_23_158
*1134 FILLER_0_23_160
*1135 FILLER_0_23_170
*1136 FILLER_0_23_18
*1137 FILLER_0_23_186
*1138 FILLER_0_23_194
*1139 FILLER_0_23_2
*1140 FILLER_0_23_201
*1141 FILLER_0_23_209
*1142 FILLER_0_23_212
*1143 FILLER_0_23_228
*1144 FILLER_0_23_236
*1145 FILLER_0_23_240
*1146 FILLER_0_23_254
*1147 FILLER_0_23_270
*1148 FILLER_0_23_278
*1149 FILLER_0_23_282
*1150 FILLER_0_23_290
*1151 FILLER_0_23_324
*1152 FILLER_0_23_328
*1153 FILLER_0_23_336
*1154 FILLER_0_23_34
*1155 FILLER_0_23_362
*1156 FILLER_0_23_366
*1157 FILLER_0_23_371
*1158 FILLER_0_23_379
*1159 FILLER_0_23_383
*1160 FILLER_0_23_50
*1161 FILLER_0_23_66
*1162 FILLER_0_23_72
*1163 FILLER_0_23_97
*1164 FILLER_0_24_102
*1165 FILLER_0_24_104
*1166 FILLER_0_24_107
*1167 FILLER_0_24_115
*1168 FILLER_0_24_119
*1169 FILLER_0_24_137
*1170 FILLER_0_24_141
*1171 FILLER_0_24_143
*1172 FILLER_0_24_167
*1173 FILLER_0_24_177
*1174 FILLER_0_24_18
*1175 FILLER_0_24_193
*1176 FILLER_0_24_197
*1177 FILLER_0_24_199
*1178 FILLER_0_24_2
*1179 FILLER_0_24_207
*1180 FILLER_0_24_223
*1181 FILLER_0_24_247
*1182 FILLER_0_24_26
*1183 FILLER_0_24_263
*1184 FILLER_0_24_303
*1185 FILLER_0_24_314
*1186 FILLER_0_24_317
*1187 FILLER_0_24_333
*1188 FILLER_0_24_345
*1189 FILLER_0_24_349
*1190 FILLER_0_24_380
*1191 FILLER_0_24_44
*1192 FILLER_0_24_52
*1193 FILLER_0_24_56
*1194 FILLER_0_24_58
*1195 FILLER_0_24_86
*1196 FILLER_0_24_90
*1197 FILLER_0_24_98
*1198 FILLER_0_25_104
*1199 FILLER_0_25_112
*1200 FILLER_0_25_116
*1201 FILLER_0_25_127
*1202 FILLER_0_25_131
*1203 FILLER_0_25_139
*1204 FILLER_0_25_142
*1205 FILLER_0_25_146
*1206 FILLER_0_25_148
*1207 FILLER_0_25_156
*1208 FILLER_0_25_172
*1209 FILLER_0_25_176
*1210 FILLER_0_25_18
*1211 FILLER_0_25_2
*1212 FILLER_0_25_205
*1213 FILLER_0_25_209
*1214 FILLER_0_25_212
*1215 FILLER_0_25_228
*1216 FILLER_0_25_244
*1217 FILLER_0_25_262
*1218 FILLER_0_25_278
*1219 FILLER_0_25_282
*1220 FILLER_0_25_298
*1221 FILLER_0_25_31
*1222 FILLER_0_25_314
*1223 FILLER_0_25_317
*1224 FILLER_0_25_33
*1225 FILLER_0_25_333
*1226 FILLER_0_25_349
*1227 FILLER_0_25_352
*1228 FILLER_0_25_368
*1229 FILLER_0_25_48
*1230 FILLER_0_25_64
*1231 FILLER_0_25_68
*1232 FILLER_0_25_72
*1233 FILLER_0_25_88
*1234 FILLER_0_26_10
*1235 FILLER_0_26_107
*1236 FILLER_0_26_115
*1237 FILLER_0_26_119
*1238 FILLER_0_26_121
*1239 FILLER_0_26_130
*1240 FILLER_0_26_146
*1241 FILLER_0_26_162
*1242 FILLER_0_26_170
*1243 FILLER_0_26_174
*1244 FILLER_0_26_177
*1245 FILLER_0_26_185
*1246 FILLER_0_26_189
*1247 FILLER_0_26_191
*1248 FILLER_0_26_2
*1249 FILLER_0_26_20
*1250 FILLER_0_26_211
*1251 FILLER_0_26_215
*1252 FILLER_0_26_231
*1253 FILLER_0_26_239
*1254 FILLER_0_26_243
*1255 FILLER_0_26_247
*1256 FILLER_0_26_263
*1257 FILLER_0_26_279
*1258 FILLER_0_26_28
*1259 FILLER_0_26_295
*1260 FILLER_0_26_30
*1261 FILLER_0_26_303
*1262 FILLER_0_26_313
*1263 FILLER_0_26_33
*1264 FILLER_0_26_330
*1265 FILLER_0_26_338
*1266 FILLER_0_26_346
*1267 FILLER_0_26_350
*1268 FILLER_0_26_366
*1269 FILLER_0_26_37
*1270 FILLER_0_26_382
*1271 FILLER_0_26_53
*1272 FILLER_0_26_69
*1273 FILLER_0_26_79
*1274 FILLER_0_26_87
*1275 FILLER_0_26_97
*1276 FILLER_0_27_104
*1277 FILLER_0_27_108
*1278 FILLER_0_27_120
*1279 FILLER_0_27_124
*1280 FILLER_0_27_142
*1281 FILLER_0_27_158
*1282 FILLER_0_27_170
*1283 FILLER_0_27_186
*1284 FILLER_0_27_190
*1285 FILLER_0_27_2
*1286 FILLER_0_27_204
*1287 FILLER_0_27_208
*1288 FILLER_0_27_212
*1289 FILLER_0_27_228
*1290 FILLER_0_27_244
*1291 FILLER_0_27_260
*1292 FILLER_0_27_276
*1293 FILLER_0_27_282
*1294 FILLER_0_27_290
*1295 FILLER_0_27_292
*1296 FILLER_0_27_299
*1297 FILLER_0_27_315
*1298 FILLER_0_27_32
*1299 FILLER_0_27_331
*1300 FILLER_0_27_347
*1301 FILLER_0_27_349
*1302 FILLER_0_27_352
*1303 FILLER_0_27_36
*1304 FILLER_0_27_368
*1305 FILLER_0_27_38
*1306 FILLER_0_27_4
*1307 FILLER_0_27_52
*1308 FILLER_0_27_68
*1309 FILLER_0_27_72
*1310 FILLER_0_27_88
*1311 FILLER_0_28_102
*1312 FILLER_0_28_104
*1313 FILLER_0_28_107
*1314 FILLER_0_28_109
*1315 FILLER_0_28_124
*1316 FILLER_0_28_140
*1317 FILLER_0_28_148
*1318 FILLER_0_28_157
*1319 FILLER_0_28_169
*1320 FILLER_0_28_173
*1321 FILLER_0_28_177
*1322 FILLER_0_28_18
*1323 FILLER_0_28_185
*1324 FILLER_0_28_189
*1325 FILLER_0_28_191
*1326 FILLER_0_28_2
*1327 FILLER_0_28_216
*1328 FILLER_0_28_220
*1329 FILLER_0_28_236
*1330 FILLER_0_28_244
*1331 FILLER_0_28_247
*1332 FILLER_0_28_251
*1333 FILLER_0_28_266
*1334 FILLER_0_28_282
*1335 FILLER_0_28_298
*1336 FILLER_0_28_314
*1337 FILLER_0_28_317
*1338 FILLER_0_28_333
*1339 FILLER_0_28_34
*1340 FILLER_0_28_349
*1341 FILLER_0_28_365
*1342 FILLER_0_28_37
*1343 FILLER_0_28_371
*1344 FILLER_0_28_379
*1345 FILLER_0_28_383
*1346 FILLER_0_28_53
*1347 FILLER_0_28_79
*1348 FILLER_0_28_86
*1349 FILLER_0_29_106
*1350 FILLER_0_29_115
*1351 FILLER_0_29_127
*1352 FILLER_0_29_135
*1353 FILLER_0_29_139
*1354 FILLER_0_29_142
*1355 FILLER_0_29_146
*1356 FILLER_0_29_148
*1357 FILLER_0_29_166
*1358 FILLER_0_29_18
*1359 FILLER_0_29_182
*1360 FILLER_0_29_186
*1361 FILLER_0_29_188
*1362 FILLER_0_29_193
*1363 FILLER_0_29_2
*1364 FILLER_0_29_201
*1365 FILLER_0_29_203
*1366 FILLER_0_29_206
*1367 FILLER_0_29_212
*1368 FILLER_0_29_228
*1369 FILLER_0_29_236
*1370 FILLER_0_29_238
*1371 FILLER_0_29_264
*1372 FILLER_0_29_268
*1373 FILLER_0_29_276
*1374 FILLER_0_29_282
*1375 FILLER_0_29_290
*1376 FILLER_0_29_297
*1377 FILLER_0_29_305
*1378 FILLER_0_29_309
*1379 FILLER_0_29_311
*1380 FILLER_0_29_318
*1381 FILLER_0_29_325
*1382 FILLER_0_29_34
*1383 FILLER_0_29_341
*1384 FILLER_0_29_345
*1385 FILLER_0_29_347
*1386 FILLER_0_29_352
*1387 FILLER_0_29_354
*1388 FILLER_0_29_382
*1389 FILLER_0_29_50
*1390 FILLER_0_29_66
*1391 FILLER_0_29_82
*1392 FILLER_0_29_98
*1393 FILLER_0_2_107
*1394 FILLER_0_2_138
*1395 FILLER_0_2_142
*1396 FILLER_0_2_172
*1397 FILLER_0_2_174
*1398 FILLER_0_2_177
*1399 FILLER_0_2_18
*1400 FILLER_0_2_2
*1401 FILLER_0_2_220
*1402 FILLER_0_2_224
*1403 FILLER_0_2_232
*1404 FILLER_0_2_236
*1405 FILLER_0_2_243
*1406 FILLER_0_2_247
*1407 FILLER_0_2_263
*1408 FILLER_0_2_272
*1409 FILLER_0_2_300
*1410 FILLER_0_2_304
*1411 FILLER_0_2_312
*1412 FILLER_0_2_314
*1413 FILLER_0_2_317
*1414 FILLER_0_2_333
*1415 FILLER_0_2_34
*1416 FILLER_0_2_349
*1417 FILLER_0_2_365
*1418 FILLER_0_2_37
*1419 FILLER_0_2_381
*1420 FILLER_0_2_383
*1421 FILLER_0_2_45
*1422 FILLER_0_2_73
*1423 FILLER_0_2_77
*1424 FILLER_0_30_104
*1425 FILLER_0_30_107
*1426 FILLER_0_30_122
*1427 FILLER_0_30_126
*1428 FILLER_0_30_142
*1429 FILLER_0_30_150
*1430 FILLER_0_30_154
*1431 FILLER_0_30_158
*1432 FILLER_0_30_174
*1433 FILLER_0_30_18
*1434 FILLER_0_30_183
*1435 FILLER_0_30_187
*1436 FILLER_0_30_2
*1437 FILLER_0_30_201
*1438 FILLER_0_30_217
*1439 FILLER_0_30_233
*1440 FILLER_0_30_237
*1441 FILLER_0_30_247
*1442 FILLER_0_30_260
*1443 FILLER_0_30_276
*1444 FILLER_0_30_292
*1445 FILLER_0_30_296
*1446 FILLER_0_30_298
*1447 FILLER_0_30_311
*1448 FILLER_0_30_329
*1449 FILLER_0_30_333
*1450 FILLER_0_30_335
*1451 FILLER_0_30_34
*1452 FILLER_0_30_352
*1453 FILLER_0_30_364
*1454 FILLER_0_30_37
*1455 FILLER_0_30_380
*1456 FILLER_0_30_41
*1457 FILLER_0_30_56
*1458 FILLER_0_30_72
*1459 FILLER_0_30_88
*1460 FILLER_0_31_103
*1461 FILLER_0_31_107
*1462 FILLER_0_31_123
*1463 FILLER_0_31_139
*1464 FILLER_0_31_153
*1465 FILLER_0_31_157
*1466 FILLER_0_31_173
*1467 FILLER_0_31_18
*1468 FILLER_0_31_189
*1469 FILLER_0_31_2
*1470 FILLER_0_31_205
*1471 FILLER_0_31_207
*1472 FILLER_0_31_212
*1473 FILLER_0_31_214
*1474 FILLER_0_31_229
*1475 FILLER_0_31_259
*1476 FILLER_0_31_275
*1477 FILLER_0_31_279
*1478 FILLER_0_31_282
*1479 FILLER_0_31_290
*1480 FILLER_0_31_292
*1481 FILLER_0_31_295
*1482 FILLER_0_31_299
*1483 FILLER_0_31_303
*1484 FILLER_0_31_311
*1485 FILLER_0_31_313
*1486 FILLER_0_31_322
*1487 FILLER_0_31_334
*1488 FILLER_0_31_341
*1489 FILLER_0_31_349
*1490 FILLER_0_31_36
*1491 FILLER_0_31_362
*1492 FILLER_0_31_378
*1493 FILLER_0_31_382
*1494 FILLER_0_31_40
*1495 FILLER_0_31_44
*1496 FILLER_0_31_60
*1497 FILLER_0_31_68
*1498 FILLER_0_31_72
*1499 FILLER_0_31_87
*1500 FILLER_0_32_103
*1501 FILLER_0_32_107
*1502 FILLER_0_32_123
*1503 FILLER_0_32_139
*1504 FILLER_0_32_155
*1505 FILLER_0_32_164
*1506 FILLER_0_32_168
*1507 FILLER_0_32_177
*1508 FILLER_0_32_181
*1509 FILLER_0_32_2
*1510 FILLER_0_32_209
*1511 FILLER_0_32_213
*1512 FILLER_0_32_221
*1513 FILLER_0_32_233
*1514 FILLER_0_32_241
*1515 FILLER_0_32_257
*1516 FILLER_0_32_265
*1517 FILLER_0_32_31
*1518 FILLER_0_32_313
*1519 FILLER_0_32_317
*1520 FILLER_0_32_333
*1521 FILLER_0_32_349
*1522 FILLER_0_32_365
*1523 FILLER_0_32_37
*1524 FILLER_0_32_381
*1525 FILLER_0_32_383
*1526 FILLER_0_32_53
*1527 FILLER_0_32_55
*1528 FILLER_0_32_63
*1529 FILLER_0_32_71
*1530 FILLER_0_32_95
*1531 FILLER_0_33_111
*1532 FILLER_0_33_119
*1533 FILLER_0_33_130
*1534 FILLER_0_33_134
*1535 FILLER_0_33_138
*1536 FILLER_0_33_142
*1537 FILLER_0_33_158
*1538 FILLER_0_33_166
*1539 FILLER_0_33_18
*1540 FILLER_0_33_182
*1541 FILLER_0_33_186
*1542 FILLER_0_33_2
*1543 FILLER_0_33_202
*1544 FILLER_0_33_212
*1545 FILLER_0_33_234
*1546 FILLER_0_33_250
*1547 FILLER_0_33_26
*1548 FILLER_0_33_266
*1549 FILLER_0_33_274
*1550 FILLER_0_33_278
*1551 FILLER_0_33_282
*1552 FILLER_0_33_289
*1553 FILLER_0_33_305
*1554 FILLER_0_33_321
*1555 FILLER_0_33_337
*1556 FILLER_0_33_34
*1557 FILLER_0_33_347
*1558 FILLER_0_33_349
*1559 FILLER_0_33_352
*1560 FILLER_0_33_368
*1561 FILLER_0_33_38
*1562 FILLER_0_33_40
*1563 FILLER_0_33_55
*1564 FILLER_0_33_63
*1565 FILLER_0_33_67
*1566 FILLER_0_33_69
*1567 FILLER_0_33_72
*1568 FILLER_0_33_76
*1569 FILLER_0_33_87
*1570 FILLER_0_33_95
*1571 FILLER_0_34_100
*1572 FILLER_0_34_104
*1573 FILLER_0_34_107
*1574 FILLER_0_34_115
*1575 FILLER_0_34_119
*1576 FILLER_0_34_131
*1577 FILLER_0_34_142
*1578 FILLER_0_34_146
*1579 FILLER_0_34_162
*1580 FILLER_0_34_164
*1581 FILLER_0_34_172
*1582 FILLER_0_34_174
*1583 FILLER_0_34_177
*1584 FILLER_0_34_18
*1585 FILLER_0_34_181