*SPEF "ieee 1481-1999"
*DESIGN "diceroll"
*DATE "11:11:11 Fri 11 11, 1111"
*VENDOR "OpenRCX"
*PROGRAM "Parallel Extraction"
*VERSION "1.0"
*DESIGN_FLOW "NAME_SCOPE LOCAL" "PIN_CAP NONE"
*DIVIDER /
*DELIMITER :
*BUS_DELIMITER []
*T_UNIT 1 NS
*C_UNIT 1 PF
*R_UNIT 1 OHM
*L_UNIT 1 HENRY

*NAME_MAP
*1 io_in
*2 io_out[0]
*3 io_out[1]
*4 io_out[2]
*5 io_out[3]
*6 io_out[4]
*7 io_out[5]
*8 io_out[6]
*9 io_out[7]
*10 io_out[8]
*11 rst_n
*14 wb_clk_i
*15 _000_
*16 _001_
*17 _002_
*18 _003_
*19 _004_
*20 _005_
*21 _006_
*22 _007_
*23 _008_
*24 _009_
*25 _010_
*26 _011_
*27 _012_
*28 _013_
*29 _014_
*30 _015_
*31 _016_
*32 _017_
*33 _018_
*34 _019_
*35 _020_
*36 _021_
*37 _022_
*38 _023_
*39 _024_
*40 _025_
*41 _026_
*42 _027_
*43 _028_
*44 _029_
*45 _030_
*46 _031_
*47 _032_
*48 _033_
*49 _034_
*50 _035_
*51 _036_
*52 _037_
*53 _038_
*54 _039_
*55 _040_
*56 _041_
*57 _042_
*58 _043_
*59 _044_
*60 _045_
*61 _046_
*62 _047_
*63 _048_
*64 _049_
*65 _050_
*66 _051_
*67 _052_
*68 _053_
*69 _054_
*70 _055_
*71 _056_
*72 _057_
*73 _058_
*74 _059_
*75 _060_
*76 _061_
*77 _062_
*78 _063_
*79 _064_
*80 _065_
*81 _066_
*82 _067_
*83 _068_
*84 _069_
*85 _070_
*86 _071_
*87 _072_
*88 _073_
*89 _074_
*90 _075_
*91 _076_
*92 _077_
*93 _078_
*94 _079_
*95 _080_
*96 _081_
*97 _082_
*98 _083_
*99 _084_
*100 _085_
*101 _086_
*102 _087_
*103 _088_
*104 _089_
*105 _090_
*106 _091_
*107 _092_
*108 _093_
*109 _094_
*110 _095_
*111 _096_
*112 _097_
*113 _098_
*114 _099_
*115 _100_
*116 _101_
*117 _102_
*118 _103_
*119 _104_
*120 _105_
*121 _106_
*122 _107_
*123 _108_
*124 _109_
*125 _110_
*126 _111_
*127 _112_
*128 _113_
*129 _114_
*130 _115_
*131 _116_
*132 _117_
*133 _118_
*134 _119_
*135 _120_
*136 _121_
*137 _122_
*138 _123_
*139 _124_
*140 _125_
*141 _126_
*142 _127_
*143 _128_
*144 _129_
*145 _130_
*146 _131_
*147 _132_
*148 _133_
*149 _134_
*150 _135_
*151 _136_
*152 _137_
*153 _138_
*154 _139_
*155 _140_
*156 _141_
*157 _142_
*158 _143_
*159 _144_
*160 _145_
*161 _146_
*162 _147_
*163 _148_
*164 _149_
*165 _150_
*166 _151_
*167 _152_
*168 _153_
*169 _154_
*170 _155_
*171 _156_
*172 _157_
*173 _158_
*174 _159_
*175 _160_
*176 _161_
*177 _162_
*178 _163_
*179 _164_
*180 _165_
*181 _166_
*182 _167_
*183 _168_
*184 _169_
*185 _170_
*186 _171_
*187 _172_
*188 _173_
*189 _174_
*190 _175_
*191 _176_
*192 _177_
*193 _178_
*194 _179_
*195 _180_
*196 _181_
*197 _182_
*198 _183_
*199 _184_
*200 _185_
*201 _186_
*202 _187_
*203 _188_
*204 _189_
*205 _190_
*206 _191_
*207 _192_
*208 _193_
*209 _194_
*210 _195_
*211 _196_
*212 _197_
*213 _198_
*214 _199_
*215 _200_
*216 _201_
*217 _202_
*218 _203_
*219 _204_
*220 _205_
*221 _206_
*222 _207_
*223 _208_
*224 _209_
*225 _210_
*226 _211_
*227 _212_
*228 _213_
*229 _214_
*230 _215_
*231 _216_
*232 _217_
*233 _218_
*234 _219_
*235 _220_
*236 _221_
*237 _222_
*238 _223_
*239 _224_
*240 _225_
*241 _226_
*242 _227_
*243 _228_
*244 _229_
*245 _230_
*246 _231_
*247 _232_
*248 _233_
*249 _234_
*250 _235_
*251 _236_
*252 _237_
*253 _238_
*254 _239_
*255 _240_
*256 _241_
*257 _242_
*258 _243_
*259 _244_
*260 _245_
*261 _246_
*262 _247_
*263 _248_
*264 _249_
*265 _250_
*266 _251_
*267 _252_
*268 _253_
*269 _254_
*270 _255_
*271 _256_
*272 _257_
*273 _258_
*274 _259_
*275 _260_
*276 _261_
*277 _262_
*278 _263_
*279 _264_
*280 _265_
*281 _266_
*282 _267_
*283 _268_
*284 _269_
*285 _270_
*286 _271_
*287 _272_
*288 _273_
*289 _274_
*290 _275_
*291 _276_
*292 _277_
*293 _278_
*294 _279_
*295 _280_
*296 _281_
*297 _282_
*298 _283_
*299 _284_
*300 _285_
*301 _286_
*302 _287_
*303 _288_
*304 _289_
*305 _290_
*306 _291_
*307 _292_
*308 _293_
*309 _294_
*310 _295_
*311 _296_
*312 _297_
*313 _298_
*314 _299_
*315 _300_
*316 _301_
*317 _302_
*318 _303_
*319 _304_
*320 _305_
*321 _306_
*322 _307_
*323 _308_
*324 _309_
*325 _310_
*326 _311_
*327 _312_
*328 _313_
*329 _314_
*330 _315_
*331 _316_
*332 _317_
*333 _318_
*334 _319_
*335 _320_
*336 _321_
*337 _322_
*338 _323_
*339 _324_
*340 _325_
*341 _326_
*342 _327_
*343 _328_
*344 _329_
*345 bcd\[0\]
*346 bcd\[1\]
*347 bcd\[2\]
*348 clkdiv\[0\]
*349 clkdiv\[1\]
*350 clkdiv\[2\]
*351 clkdiv\[3\]
*352 clkdiv\[4\]
*353 clkdiv\[5\]
*354 clkdiv\[6\]
*355 clkdiv\[7\]
*356 clknet_0_wb_clk_i
*357 clknet_3_0__leaf_wb_clk_i
*358 clknet_3_1__leaf_wb_clk_i
*359 clknet_3_2__leaf_wb_clk_i
*360 clknet_3_3__leaf_wb_clk_i
*361 clknet_3_4__leaf_wb_clk_i
*362 clknet_3_5__leaf_wb_clk_i
*363 clknet_3_6__leaf_wb_clk_i
*364 clknet_3_7__leaf_wb_clk_i
*365 counter\[0\]
*366 counter\[10\]
*367 counter\[11\]
*368 counter\[12\]
*369 counter\[13\]
*370 counter\[14\]
*371 counter\[15\]
*372 counter\[1\]
*373 counter\[2\]
*374 counter\[3\]
*375 counter\[4\]
*376 counter\[5\]
*377 counter\[6\]
*378 counter\[7\]
*379 counter\[8\]
*380 counter\[9\]
*381 lfsr\[0\]
*382 lfsr\[10\]
*383 lfsr\[11\]
*384 lfsr\[12\]
*385 lfsr\[13\]
*386 lfsr\[14\]
*387 lfsr\[15\]
*388 lfsr\[1\]
*389 lfsr\[2\]
*390 lfsr\[4\]
*391 lfsr\[5\]
*392 lfsr\[6\]
*393 lfsr\[7\]
*394 lfsr\[8\]
*395 lfsr\[9\]
*396 m_clkdiv\[0\]
*397 m_clkdiv\[1\]
*398 m_clkdiv\[2\]
*399 m_clkdiv\[3\]
*400 m_clkdiv\[4\]
*401 m_clkdiv\[5\]
*402 m_clkdiv\[6\]
*403 m_clkdiv\[7\]
*404 m_clkdiv\[8\]
*405 m_clkdiv\[9\]
*406 net1
*407 net10
*408 net11
*409 net2
*410 net3
*411 net4
*412 net5
*413 net6
*414 net7
*415 net8
*416 net9
*417 r_counter\[0\]
*418 r_counter\[1\]
*419 r_counter\[2\]
*420 ANTENNA__338__A3
*421 ANTENNA__338__A4
*422 ANTENNA__346__B
*423 ANTENNA__355__A1
*424 ANTENNA__355__A2
*425 ANTENNA__359__I
*426 ANTENNA__361__I
*427 ANTENNA__362__A1
*428 ANTENNA__365__B2
*429 ANTENNA__367__I
*430 ANTENNA__369__B1
*431 ANTENNA__379__I
*432 ANTENNA__390__I
*433 ANTENNA__402__A1
*434 ANTENNA__402__B
*435 ANTENNA__406__A1
*436 ANTENNA__413__I
*437 ANTENNA__414__I
*438 ANTENNA__416__I
*439 ANTENNA__417__I
*440 ANTENNA__422__I
*441 ANTENNA__424__A1
*442 ANTENNA__430__A1
*443 ANTENNA__435__B
*444 ANTENNA__442__B
*445 ANTENNA__449__B
*446 ANTENNA__453__I
*447 ANTENNA__454__I
*448 ANTENNA__459__I
*449 ANTENNA__460__I
*450 ANTENNA__462__I
*451 ANTENNA__464__I
*452 ANTENNA__465__I
*453 ANTENNA__468__I
*454 ANTENNA__470__A1
*455 ANTENNA__474__I
*456 ANTENNA__493__I
*457 ANTENNA__498__I
*458 ANTENNA__502__A1
*459 ANTENNA__503__C
*460 ANTENNA__509__A1
*461 ANTENNA__510__C
*462 ANTENNA__514__C
*463 ANTENNA__520__A2
*464 ANTENNA__521__A2
*465 ANTENNA__526__A1
*466 ANTENNA__528__I
*467 ANTENNA__529__A2
*468 ANTENNA__531__A2
*469 ANTENNA__533__C
*470 ANTENNA__535__I
*471 ANTENNA__536__A1
*472 ANTENNA__539__B2
*473 ANTENNA__546__I
*474 ANTENNA__553__A3
*475 ANTENNA__566__I
*476 ANTENNA__571__A1
*477 ANTENNA__576__B
*478 ANTENNA__585__I
*479 ANTENNA__586__C
*480 ANTENNA__590__A1
*481 ANTENNA__590__A2
*482 ANTENNA__592__B2
*483 ANTENNA__593__B
*484 ANTENNA__598__B2
*485 ANTENNA__599__C
*486 ANTENNA__602__B
*487 ANTENNA__605__A1
*488 ANTENNA__610__A1
*489 ANTENNA__620__A1
*490 ANTENNA__623__A1
*491 ANTENNA__624__A1
*492 ANTENNA__625__S
*493 ANTENNA__626__A1
*494 ANTENNA__627__A2
*495 ANTENNA__628__A2
*496 ANTENNA__628__B2
*497 ANTENNA__628__C
*498 ANTENNA__631__A1
*499 ANTENNA__634__A2
*500 ANTENNA__635__I
*501 ANTENNA__636__B
*502 ANTENNA__637__A1
*503 ANTENNA__638__A2
*504 ANTENNA__639__B
*505 ANTENNA__640__A1
*506 ANTENNA__641__A2
*507 ANTENNA__642__B
*508 ANTENNA__643__A1
*509 ANTENNA__644__C
*510 ANTENNA__645__A1
*511 ANTENNA__646__A2
*512 ANTENNA__647__B
*513 ANTENNA__648__A1
*514 ANTENNA__649__C
*515 ANTENNA__650__A2
*516 ANTENNA__651__A1
*517 ANTENNA__652__A2
*518 ANTENNA__654__A1
*519 ANTENNA__657__A1
*520 ANTENNA__658__A1
*521 ANTENNA__658__B1
*522 ANTENNA__659__A1
*523 ANTENNA__660__CLK
*524 ANTENNA__661__CLK
*525 ANTENNA__662__CLK
*526 ANTENNA__663__CLK
*527 ANTENNA__664__CLK
*528 ANTENNA__665__CLK
*529 ANTENNA__666__CLK
*530 ANTENNA__667__CLK
*531 ANTENNA__668__CLK
*532 ANTENNA__669__CLK
*533 ANTENNA__670__CLK
*534 ANTENNA__671__CLK
*535 ANTENNA__672__CLK
*536 ANTENNA__673__CLK
*537 ANTENNA__674__CLK
*538 ANTENNA__675__CLK
*539 ANTENNA__676__CLK
*540 ANTENNA__677__CLK
*541 ANTENNA__678__CLK
*542 ANTENNA__679__CLK
*543 ANTENNA__679__D
*544 ANTENNA__680__CLK
*545 ANTENNA__681__CLK
*546 ANTENNA__682__CLK
*547 ANTENNA__683__CLK
*548 ANTENNA__684__CLK
*549 ANTENNA__685__CLK
*550 ANTENNA__686__CLK
*551 ANTENNA__687__CLK
*552 ANTENNA__688__CLK
*553 ANTENNA__689__CLK
*554 ANTENNA__690__CLK
*555 ANTENNA__691__CLK
*556 ANTENNA__692__CLK
*557 ANTENNA__693__CLK
*558 ANTENNA__694__CLK
*559 ANTENNA__695__CLK
*560 ANTENNA__696__CLK
*561 ANTENNA__697__CLK
*562 ANTENNA__698__CLK
*563 ANTENNA__699__CLK
*564 ANTENNA__700__CLK
*565 ANTENNA__701__CLK
*566 ANTENNA__702__CLK
*567 ANTENNA__703__CLK
*568 ANTENNA__704__CLK
*569 ANTENNA__705__CLK
*570 ANTENNA__706__CLK
*571 ANTENNA__707__CLK
*572 ANTENNA__708__CLK
*573 ANTENNA__709__CLK
*574 ANTENNA__710__CLK
*575 ANTENNA__711__CLK
*576 ANTENNA__712__CLK
*577 ANTENNA__713__CLK
*578 ANTENNA__714__CLK
*579 ANTENNA__715__CLK
*580 ANTENNA__716__CLK
*581 ANTENNA__717__CLK
*582 ANTENNA__718__CLK
*583 ANTENNA__719__CLK
*584 ANTENNA__720__CLK
*585 ANTENNA__721__CLK
*586 ANTENNA__722__CLK
*587 ANTENNA__723__CLK
*588 ANTENNA_clkbuf_0_wb_clk_i_I
*589 ANTENNA_clkbuf_3_0__f_wb_clk_i_I
*590 ANTENNA_clkbuf_3_1__f_wb_clk_i_I
*591 ANTENNA_clkbuf_3_2__f_wb_clk_i_I
*592 ANTENNA_clkbuf_3_3__f_wb_clk_i_I
*593 ANTENNA_clkbuf_3_4__f_wb_clk_i_I
*594 ANTENNA_clkbuf_3_5__f_wb_clk_i_I
*595 ANTENNA_clkbuf_3_6__f_wb_clk_i_I
*596 ANTENNA_clkbuf_3_7__f_wb_clk_i_I
*597 ANTENNA_input1_I
*598 ANTENNA_input2_I
*599 FILLER_0_0_104
*600 FILLER_0_0_138
*601 FILLER_0_0_172
*602 FILLER_0_0_2
*603 FILLER_0_0_206
*604 FILLER_0_0_240
*605 FILLER_0_0_274
*606 FILLER_0_0_308
*607 FILLER_0_0_342
*608 FILLER_0_0_36
*609 FILLER_0_0_376
*610 FILLER_0_0_70
*611 FILLER_0_10_101
*612 FILLER_0_10_107
*613 FILLER_0_10_114
*614 FILLER_0_10_130
*615 FILLER_0_10_134
*616 FILLER_0_10_158
*617 FILLER_0_10_174
*618 FILLER_0_10_177
*619 FILLER_0_10_2
*620 FILLER_0_10_241
*621 FILLER_0_10_247
*622 FILLER_0_10_251
*623 FILLER_0_10_253
*624 FILLER_0_10_264
*625 FILLER_0_10_272
*626 FILLER_0_10_276
*627 FILLER_0_10_288
*628 FILLER_0_10_304
*629 FILLER_0_10_312
*630 FILLER_0_10_314
*631 FILLER_0_10_317
*632 FILLER_0_10_34
*633 FILLER_0_10_37
*634 FILLER_0_10_381
*635 FILLER_0_10_383
*636 FILLER_0_10_45
*637 FILLER_0_10_69
*638 FILLER_0_10_73
*639 FILLER_0_10_89
*640 FILLER_0_10_93
*641 FILLER_0_10_95
*642 FILLER_0_11_103
*643 FILLER_0_11_134
*644 FILLER_0_11_142
*645 FILLER_0_11_144
*646 FILLER_0_11_174
*647 FILLER_0_11_2
*648 FILLER_0_11_206
*649 FILLER_0_11_220
*650 FILLER_0_11_236
*651 FILLER_0_11_266
*652 FILLER_0_11_270
*653 FILLER_0_11_278
*654 FILLER_0_11_311
*655 FILLER_0_11_315
*656 FILLER_0_11_32
*657 FILLER_0_11_347
*658 FILLER_0_11_349
*659 FILLER_0_11_352
*660 FILLER_0_11_36
*661 FILLER_0_11_46
*662 FILLER_0_11_68
*663 FILLER_0_11_72
*664 FILLER_0_11_76
*665 FILLER_0_11_84
*666 FILLER_0_11_88
*667 FILLER_0_11_90
*668 FILLER_0_11_99
*669 FILLER_0_12_102
*670 FILLER_0_12_104
*671 FILLER_0_12_107
*672 FILLER_0_12_171
*673 FILLER_0_12_177
*674 FILLER_0_12_185
*675 FILLER_0_12_189
*676 FILLER_0_12_2
*677 FILLER_0_12_220
*678 FILLER_0_12_224
*679 FILLER_0_12_240
*680 FILLER_0_12_244
*681 FILLER_0_12_247
*682 FILLER_0_12_265
*683 FILLER_0_12_273
*684 FILLER_0_12_277
*685 FILLER_0_12_279
*686 FILLER_0_12_294
*687 FILLER_0_12_296
*688 FILLER_0_12_305
*689 FILLER_0_12_313
*690 FILLER_0_12_317
*691 FILLER_0_12_34
*692 FILLER_0_12_37
*693 FILLER_0_12_381
*694 FILLER_0_12_383
*695 FILLER_0_12_53
*696 FILLER_0_12_55
*697 FILLER_0_12_66
*698 FILLER_0_12_98
*699 FILLER_0_13_136
*700 FILLER_0_13_142
*701 FILLER_0_13_158
*702 FILLER_0_13_193
*703 FILLER_0_13_2
*704 FILLER_0_13_201
*705 FILLER_0_13_203
*706 FILLER_0_13_226
*707 FILLER_0_13_258
*708 FILLER_0_13_274
*709 FILLER_0_13_278
*710 FILLER_0_13_282
*711 FILLER_0_13_290
*712 FILLER_0_13_294
*713 FILLER_0_13_297
*714 FILLER_0_13_329
*715 FILLER_0_13_34
*716 FILLER_0_13_345
*717 FILLER_0_13_349
*718 FILLER_0_13_352
*719 FILLER_0_13_50
*720 FILLER_0_13_54
*721 FILLER_0_13_62
*722 FILLER_0_13_72
*723 FILLER_0_14_103
*724 FILLER_0_14_113
*725 FILLER_0_14_117
*726 FILLER_0_14_121
*727 FILLER_0_14_151
*728 FILLER_0_14_155
*729 FILLER_0_14_171
*730 FILLER_0_14_177
*731 FILLER_0_14_18
*732 FILLER_0_14_2
*733 FILLER_0_14_209
*734 FILLER_0_14_217
*735 FILLER_0_14_220
*736 FILLER_0_14_236
*737 FILLER_0_14_244
*738 FILLER_0_14_247
*739 FILLER_0_14_251
*740 FILLER_0_14_253
*741 FILLER_0_14_256
*742 FILLER_0_14_26
*743 FILLER_0_14_288
*744 FILLER_0_14_30
*745 FILLER_0_14_304
*746 FILLER_0_14_312
*747 FILLER_0_14_317
*748 FILLER_0_14_319
*749 FILLER_0_14_32
*750 FILLER_0_14_349
*751 FILLER_0_14_37
*752 FILLER_0_14_381
*753 FILLER_0_14_383
*754 FILLER_0_14_69
*755 FILLER_0_14_79
*756 FILLER_0_14_95
*757 FILLER_0_15_118
*758 FILLER_0_15_122
*759 FILLER_0_15_138
*760 FILLER_0_15_142
*761 FILLER_0_15_174
*762 FILLER_0_15_178
*763 FILLER_0_15_180
*764 FILLER_0_15_187
*765 FILLER_0_15_2
*766 FILLER_0_15_203
*767 FILLER_0_15_207
*768 FILLER_0_15_209
*769 FILLER_0_15_212
*770 FILLER_0_15_244
*771 FILLER_0_15_264
*772 FILLER_0_15_282
*773 FILLER_0_15_286
*774 FILLER_0_15_318
*775 FILLER_0_15_320
*776 FILLER_0_15_325
*777 FILLER_0_15_341
*778 FILLER_0_15_349
*779 FILLER_0_15_352
*780 FILLER_0_15_80
*781 FILLER_0_15_96
*782 FILLER_0_16_107
*783 FILLER_0_16_123
*784 FILLER_0_16_177
*785 FILLER_0_16_181
*786 FILLER_0_16_197
*787 FILLER_0_16_2
*788 FILLER_0_16_205
*789 FILLER_0_16_207
*790 FILLER_0_16_231
*791 FILLER_0_16_239
*792 FILLER_0_16_243
*793 FILLER_0_16_284
*794 FILLER_0_16_317
*795 FILLER_0_16_321
*796 FILLER_0_16_337
*797 FILLER_0_16_34
*798 FILLER_0_16_345
*799 FILLER_0_16_37
*800 FILLER_0_16_377
*801 FILLER_0_16_381
*802 FILLER_0_16_383
*803 FILLER_0_16_67
*804 FILLER_0_16_71
*805 FILLER_0_16_79
*806 FILLER_0_16_86
*807 FILLER_0_16_94
*808 FILLER_0_17_134
*809 FILLER_0_17_138
*810 FILLER_0_17_151
*811 FILLER_0_17_159
*812 FILLER_0_17_169
*813 FILLER_0_17_173
*814 FILLER_0_17_177
*815 FILLER_0_17_18
*816 FILLER_0_17_191
*817 FILLER_0_17_195
*818 FILLER_0_17_2
*819 FILLER_0_17_203
*820 FILLER_0_17_207
*821 FILLER_0_17_209
*822 FILLER_0_17_212
*823 FILLER_0_17_228
*824 FILLER_0_17_232
*825 FILLER_0_17_26
*826 FILLER_0_17_276
*827 FILLER_0_17_30
*828 FILLER_0_17_332
*829 FILLER_0_17_34
*830 FILLER_0_17_348
*831 FILLER_0_17_352
*832 FILLER_0_17_66
*833 FILLER_0_17_72
*834 FILLER_0_17_80
*835 FILLER_0_18_102
*836 FILLER_0_18_104
*837 FILLER_0_18_107
*838 FILLER_0_18_139
*839 FILLER_0_18_157
*840 FILLER_0_18_161
*841 FILLER_0_18_169
*842 FILLER_0_18_173
*843 FILLER_0_18_177
*844 FILLER_0_18_193
*845 FILLER_0_18_197
*846 FILLER_0_18_2
*847 FILLER_0_18_234
*848 FILLER_0_18_238
*849 FILLER_0_18_242
*850 FILLER_0_18_311
*851 FILLER_0_18_32
*852 FILLER_0_18_327
*853 FILLER_0_18_34
*854 FILLER_0_18_343
*855 FILLER_0_18_360
*856 FILLER_0_18_376
*857 FILLER_0_18_43
*858 FILLER_0_18_54
*859 FILLER_0_18_86
*860 FILLER_0_19_100
*861 FILLER_0_19_122
*862 FILLER_0_19_138
*863 FILLER_0_19_142
*864 FILLER_0_19_158
*865 FILLER_0_19_18
*866 FILLER_0_19_197
*867 FILLER_0_19_2
*868 FILLER_0_19_201
*869 FILLER_0_19_209
*870 FILLER_0_19_212
*871 FILLER_0_19_244
*872 FILLER_0_19_252
*873 FILLER_0_19_259
*874 FILLER_0_19_26
*875 FILLER_0_19_275
*876 FILLER_0_19_279
*877 FILLER_0_19_282
*878 FILLER_0_19_30
*879 FILLER_0_19_318
*880 FILLER_0_19_322
*881 FILLER_0_19_338
*882 FILLER_0_19_346
*883 FILLER_0_19_362
*884 FILLER_0_19_378
*885 FILLER_0_19_382
*886 FILLER_0_19_62
*887 FILLER_0_19_78
*888 FILLER_0_19_86
*889 FILLER_0_19_96
*890 FILLER_0_1_136
*891 FILLER_0_1_142
*892 FILLER_0_1_174
*893 FILLER_0_1_182
*894 FILLER_0_1_186
*895 FILLER_0_1_193
*896 FILLER_0_1_2
*897 FILLER_0_1_209
*898 FILLER_0_1_212
*899 FILLER_0_1_220
*900 FILLER_0_1_224
*901 FILLER_0_1_226
*902 FILLER_0_1_256
*903 FILLER_0_1_260
*904 FILLER_0_1_276
*905 FILLER_0_1_282
*906 FILLER_0_1_346
*907 FILLER_0_1_352
*908 FILLER_0_1_66
*909 FILLER_0_1_72
*910 FILLER_0_20_100
*911 FILLER_0_20_104
*912 FILLER_0_20_107
*913 FILLER_0_20_109
*914 FILLER_0_20_116
*915 FILLER_0_20_120
*916 FILLER_0_20_152
*917 FILLER_0_20_158
*918 FILLER_0_20_174
*919 FILLER_0_20_177
*920 FILLER_0_20_2
*921 FILLER_0_20_241
*922 FILLER_0_20_247
*923 FILLER_0_20_279
*924 FILLER_0_20_295
*925 FILLER_0_20_303
*926 FILLER_0_20_305
*927 FILLER_0_20_313
*928 FILLER_0_20_317
*929 FILLER_0_20_333
*930 FILLER_0_20_34
*931 FILLER_0_20_343
*932 FILLER_0_20_351
*933 FILLER_0_20_355
*934 FILLER_0_20_369
*935 FILLER_0_20_37
*936 FILLER_0_20_377
*937 FILLER_0_20_381
*938 FILLER_0_20_383
*939 FILLER_0_20_47
*940 FILLER_0_20_51
*941 FILLER_0_20_83
*942 FILLER_0_20_85
*943 FILLER_0_20_92
*944 FILLER_0_21_105
*945 FILLER_0_21_107
*946 FILLER_0_21_137
*947 FILLER_0_21_139
*948 FILLER_0_21_142
*949 FILLER_0_21_167
*950 FILLER_0_21_177
*951 FILLER_0_21_193
*952 FILLER_0_21_197
*953 FILLER_0_21_2
*954 FILLER_0_21_204
*955 FILLER_0_21_208
*956 FILLER_0_21_212
*957 FILLER_0_21_276
*958 FILLER_0_21_282
*959 FILLER_0_21_314
*960 FILLER_0_21_330
*961 FILLER_0_21_334
*962 FILLER_0_21_336
*963 FILLER_0_21_345
*964 FILLER_0_21_347
*965 FILLER_0_21_352
*966 FILLER_0_21_383
*967 FILLER_0_21_66
*968 FILLER_0_21_72
*969 FILLER_0_22_103
*970 FILLER_0_22_107
*971 FILLER_0_22_111
*972 FILLER_0_22_121
*973 FILLER_0_22_153
*974 FILLER_0_22_161
*975 FILLER_0_22_165
*976 FILLER_0_22_173
*977 FILLER_0_22_177
*978 FILLER_0_22_193
*979 FILLER_0_22_197
*980 FILLER_0_22_2
*981 FILLER_0_22_201
*982 FILLER_0_22_217
*983 FILLER_0_22_225
*984 FILLER_0_22_234
*985 FILLER_0_22_242
*986 FILLER_0_22_244
*987 FILLER_0_22_247
*988 FILLER_0_22_251
*989 FILLER_0_22_253
*990 FILLER_0_22_262
*991 FILLER_0_22_270
*992 FILLER_0_22_280
*993 FILLER_0_22_296
*994 FILLER_0_22_300
*995 FILLER_0_22_317
*996 FILLER_0_22_34
*997 FILLER_0_22_349
*998 FILLER_0_22_357
*999 FILLER_0_22_364
*1000 FILLER_0_22_37
*1001 FILLER_0_22_380
*1002 FILLER_0_22_69
*1003 FILLER_0_22_77
*1004 FILLER_0_22_87
*1005 FILLER_0_23_104
*1006 FILLER_0_23_120
*1007 FILLER_0_23_122
*1008 FILLER_0_23_132
*1009 FILLER_0_23_142
*1010 FILLER_0_23_174
*1011 FILLER_0_23_182
*1012 FILLER_0_23_185
*1013 FILLER_0_23_2
*1014 FILLER_0_23_201
*1015 FILLER_0_23_209
*1016 FILLER_0_23_212
*1017 FILLER_0_23_242
*1018 FILLER_0_23_246
*1019 FILLER_0_23_279
*1020 FILLER_0_23_282
*1021 FILLER_0_23_286
*1022 FILLER_0_23_306
*1023 FILLER_0_23_338
*1024 FILLER_0_23_34
*1025 FILLER_0_23_346
*1026 FILLER_0_23_352
*1027 FILLER_0_23_38
*1028 FILLER_0_23_72
*1029 FILLER_0_24_100
*1030 FILLER_0_24_104
*1031 FILLER_0_24_107
*1032 FILLER_0_24_139
*1033 FILLER_0_24_143
*1034 FILLER_0_24_155
*1035 FILLER_0_24_168
*1036 FILLER_0_24_172
*1037 FILLER_0_24_174
*1038 FILLER_0_24_177
*1039 FILLER_0_24_18
*1040 FILLER_0_24_184
*1041 FILLER_0_24_2
*1042 FILLER_0_24_20
*1043 FILLER_0_24_235
*1044 FILLER_0_24_243
*1045 FILLER_0_24_247
*1046 FILLER_0_24_27
*1047 FILLER_0_24_279
*1048 FILLER_0_24_283
*1049 FILLER_0_24_285
*1050 FILLER_0_24_317
*1051 FILLER_0_24_321
*1052 FILLER_0_24_353
*1053 FILLER_0_24_369
*1054 FILLER_0_24_377
*1055 FILLER_0_24_381
*1056 FILLER_0_24_383
*1057 FILLER_0_24_46
*1058 FILLER_0_24_54
*1059 FILLER_0_24_58
*1060 FILLER_0_24_92
*1061 FILLER_0_25_100
*1062 FILLER_0_25_132
*1063 FILLER_0_25_142
*1064 FILLER_0_25_150
*1065 FILLER_0_25_165
*1066 FILLER_0_25_197
*1067 FILLER_0_25_2
*1068 FILLER_0_25_205
*1069 FILLER_0_25_209
*1070 FILLER_0_25_212
*1071 FILLER_0_25_228
*1072 FILLER_0_25_232
*1073 FILLER_0_25_245
*1074 FILLER_0_25_261
*1075 FILLER_0_25_274
*1076 FILLER_0_25_278
*1077 FILLER_0_25_282
*1078 FILLER_0_25_298
*1079 FILLER_0_25_302
*1080 FILLER_0_25_315
*1081 FILLER_0_25_331
*1082 FILLER_0_25_335
*1083 FILLER_0_25_337
*1084 FILLER_0_25_346
*1085 FILLER_0_25_352
*1086 FILLER_0_25_46
*1087 FILLER_0_25_54
*1088 FILLER_0_25_56
*1089 FILLER_0_25_63
*1090 FILLER_0_25_67
*1091 FILLER_0_25_69
*1092 FILLER_0_26_100
*1093 FILLER_0_26_104
*1094 FILLER_0_26_113
*1095 FILLER_0_26_117
*1096 FILLER_0_26_125
*1097 FILLER_0_26_129
*1098 FILLER_0_26_144
*1099 FILLER_0_26_148
*1100 FILLER_0_26_164
*1101 FILLER_0_26_168
*1102 FILLER_0_26_177
*1103 FILLER_0_26_18
*1104 FILLER_0_26_2
*1105 FILLER_0_26_207
*1106 FILLER_0_26_211
*1107 FILLER_0_26_243
*1108 FILLER_0_26_247
*1109 FILLER_0_26_26
*1110 FILLER_0_26_311
*1111 FILLER_0_26_317
*1112 FILLER_0_26_325
*1113 FILLER_0_26_329
*1114 FILLER_0_26_331
*1115 FILLER_0_26_34
*1116 FILLER_0_26_368
*1117 FILLER_0_26_37
*1118 FILLER_0_26_53
*1119 FILLER_0_26_61
*1120 FILLER_0_26_65
*1121 FILLER_0_26_73
*1122 FILLER_0_26_77
*1123 FILLER_0_26_79
*1124 FILLER_0_26_92
*1125 FILLER_0_27_104
*1126 FILLER_0_27_120
*1127 FILLER_0_27_122
*1128 FILLER_0_27_135
*1129 FILLER_0_27_139
*1130 FILLER_0_27_142
*1131 FILLER_0_27_2
*1132 FILLER_0_27_206
*1133 FILLER_0_27_220
*1134 FILLER_0_27_236
*1135 FILLER_0_27_240
*1136 FILLER_0_27_253
*1137 FILLER_0_27_257
*1138 FILLER_0_27_265
*1139 FILLER_0_27_273
*1140 FILLER_0_27_277
*1141 FILLER_0_27_279
*1142 FILLER_0_27_282
*1143 FILLER_0_27_298
*1144 FILLER_0_27_302
*1145 FILLER_0_27_304
*1146 FILLER_0_27_317
*1147 FILLER_0_27_333
*1148 FILLER_0_27_34
*1149 FILLER_0_27_347
*1150 FILLER_0_27_349
*1151 FILLER_0_27_352
*1152 FILLER_0_27_356
*1153 FILLER_0_27_366
*1154 FILLER_0_27_382
*1155 FILLER_0_27_49
*1156 FILLER_0_27_72
*1157 FILLER_0_28_100
*1158 FILLER_0_28_104
*1159 FILLER_0_28_107
*1160 FILLER_0_28_139
*1161 FILLER_0_28_147
*1162 FILLER_0_28_163
*1163 FILLER_0_28_171
*1164 FILLER_0_28_177
*1165 FILLER_0_28_18
*1166 FILLER_0_28_2
*1167 FILLER_0_28_22
*1168 FILLER_0_28_241
*1169 FILLER_0_28_247
*1170 FILLER_0_28_251
*1171 FILLER_0_28_265
*1172 FILLER_0_28_269
*1173 FILLER_0_28_29
*1174 FILLER_0_28_301
*1175 FILLER_0_28_309
*1176 FILLER_0_28_313
*1177 FILLER_0_28_33
*1178 FILLER_0_28_330
*1179 FILLER_0_28_346
*1180 FILLER_0_28_383
*1181 FILLER_0_28_46
*1182 FILLER_0_28_55
*1183 FILLER_0_28_59
*1184 FILLER_0_28_75
*1185 FILLER_0_28_83
*1186 FILLER_0_28_87
*1187 FILLER_0_28_89
*1188 FILLER_0_28_92
*1189 FILLER_0_29_103
*1190 FILLER_0_29_107
*1191 FILLER_0_29_123
*1192 FILLER_0_29_128
*1193 FILLER_0_29_132
*1194 FILLER_0_29_146
*1195 FILLER_0_29_150
*1196 FILLER_0_29_161
*1197 FILLER_0_29_165
*1198 FILLER_0_29_181
*1199 FILLER_0_29_189
*1200 FILLER_0_29_193
*1201 FILLER_0_29_2
*1202 FILLER_0_29_202
*1203 FILLER_0_29_212
*1204 FILLER_0_29_220
*1205 FILLER_0_29_224
*1206 FILLER_0_29_226
*1207 FILLER_0_29_264
*1208 FILLER_0_29_282
*1209 FILLER_0_29_298
*1210 FILLER_0_29_308
*1211 FILLER_0_29_32
*1212 FILLER_0_29_340
*1213 FILLER_0_29_348
*1214 FILLER_0_29_352
*1215 FILLER_0_29_36
*1216 FILLER_0_29_44
*1217 FILLER_0_29_64
*1218 FILLER_0_29_68
*1219 FILLER_0_29_72
*1220 FILLER_0_29_80
*1221 FILLER_0_29_82
*1222 FILLER_0_2_101
*1223 FILLER_0_2_107
*1224 FILLER_0_2_171
*1225 FILLER_0_2_177
*1226 FILLER_0_2_179
*1227 FILLER_0_2_2
*1228 FILLER_0_2_209
*1229 FILLER_0_2_241
*1230 FILLER_0_2_247
*1231 FILLER_0_2_311
*1232 FILLER_0_2_317
*1233 FILLER_0_2_34
*1234 FILLER_0_2_37
*1235 FILLER_0_2_381
*1236 FILLER_0_2_383
*1237 FILLER_0_30_107
*1238 FILLER_0_30_118
*1239 FILLER_0_30_122
*1240 FILLER_0_30_126
*1241 FILLER_0_30_158
*1242 FILLER_0_30_162
*1243 FILLER_0_30_165
*1244 FILLER_0_30_173
*1245 FILLER_0_30_189
*1246 FILLER_0_30_2
*1247 FILLER_0_30_205
*1248 FILLER_0_30_213
*1249 FILLER_0_30_221
*1250 FILLER_0_30_237
*1251 FILLER_0_30_247
*1252 FILLER_0_30_255
*1253 FILLER_0_30_275
*1254 FILLER_0_30_291
*1255 FILLER_0_30_299
*1256 FILLER_0_30_303
*1257 FILLER_0_30_305
*1258 FILLER_0_30_312
*1259 FILLER_0_30_314
*1260 FILLER_0_30_317
*1261 FILLER_0_30_34
*1262 FILLER_0_30_37
*1263 FILLER_0_30_381
*1264 FILLER_0_30_383
*1265 FILLER_0_30_45
*1266 FILLER_0_30_49
*1267 FILLER_0_30_51
*1268 FILLER_0_30_54
*1269 FILLER_0_30_86
*1270 FILLER_0_30_94
*1271 FILLER_0_30_98
*1272 FILLER_0_31_104
*1273 FILLER_0_31_123
*1274 FILLER_0_31_125
*1275 FILLER_0_31_135
*1276 FILLER_0_31_139
*1277 FILLER_0_31_142
*1278 FILLER_0_31_150
*1279 FILLER_0_31_154
*1280 FILLER_0_31_192
*1281 FILLER_0_31_2
*1282 FILLER_0_31_208
*1283 FILLER_0_31_218
*1284 FILLER_0_31_222
*1285 FILLER_0_31_254
*1286 FILLER_0_31_270
*1287 FILLER_0_31_278
*1288 FILLER_0_31_282
*1289 FILLER_0_31_327
*1290 FILLER_0_31_331
*1291 FILLER_0_31_341
*1292 FILLER_0_31_349
*1293 FILLER_0_31_352
*1294 FILLER_0_31_66
*1295 FILLER_0_31_72
*1296 FILLER_0_32_102
*1297 FILLER_0_32_104
*1298 FILLER_0_32_107
*1299 FILLER_0_32_139
*1300 FILLER_0_32_143
*1301 FILLER_0_32_159
*1302 FILLER_0_32_163
*1303 FILLER_0_32_171
*1304 FILLER_0_32_177
*1305 FILLER_0_32_2
*1306 FILLER_0_32_241
*1307 FILLER_0_32_247
*1308 FILLER_0_32_279
*1309 FILLER_0_32_281
*1310 FILLER_0_32_284
*1311 FILLER_0_32_290
*1312 FILLER_0_32_306
*1313 FILLER_0_32_314
*1314 FILLER_0_32_330
*1315 FILLER_0_32_34
*1316 FILLER_0_32_346
*1317 FILLER_0_32_354
*1318 FILLER_0_32_356
*1319 FILLER_0_32_37
*1320 FILLER_0_32_370
*1321 FILLER_0_32_378
*1322 FILLER_0_32_382
*1323 FILLER_0_32_45
*1324 FILLER_0_32_50
*1325 FILLER_0_32_66
*1326 FILLER_0_32_86
*1327 FILLER_0_33_110
*1328 FILLER_0_33_114
*1329 FILLER_0_33_137
*1330 FILLER_0_33_139
*1331 FILLER_0_33_142
*1332 FILLER_0_33_2
*1333 FILLER_0_33_206
*1334 FILLER_0_33_218
*1335 FILLER_0_33_231
*1336 FILLER_0_33_263
*1337 FILLER_0_33_279
*1338 FILLER_0_33_282
*1339 FILLER_0_33_32
*1340 FILLER_0_33_340
*1341 FILLER_0_33_36
*1342 FILLER_0_33_381
*1343 FILLER_0_33_383
*1344 FILLER_0_33_48
*1345 FILLER_0_33_64
*1346 FILLER_0_33_68
*1347 FILLER_0_33_72
*1348 FILLER_0_33_83
*1349 FILLER_0_33_90
*1350 FILLER_0_33_94
*1351 FILLER_0_34_107
*1352 FILLER_0_34_109
*1353 FILLER_0_34_114
*1354 FILLER_0_34_135
*1355 FILLER_0_34_168
*1356 FILLER_0_34_172
*1357 FILLER_0_34_174
*1358 FILLER_0_34_177
*1359 FILLER_0_34_2
*1360 FILLER_0_34_209
*1361 FILLER_0_34_213
*1362 FILLER_0_34_215
*1363 FILLER_0_34_234
*1364 FILLER_0_34_242
*1365 FILLER_0_34_244
*1366 FILLER_0_34_247
*1367 FILLER_0_34_255
*1368 FILLER_0_34_257
*1369 FILLER_0_34_276
*1370 FILLER_0_34_308
*1371 FILLER_0_34_312
*1372 FILLER_0_34_314
*1373 FILLER_0_34_322
*1374 FILLER_0_34_330
*1375 FILLER_0_34_334
*1376 FILLER_0_34_34
*1377 FILLER_0_34_343
*1378 FILLER_0_34_375
*1379 FILLER_0_34_383
*1380 FILLER_0_34_93
*1381 FILLER_0_34_97
*1382 FILLER_0_35_132
*1383 FILLER_0_35_136
*1384 FILLER_0_35_142
*1385 FILLER_0_35_150
*1386 FILLER_0_35_154
*1387 FILLER_0_35_170
*1388 FILLER_0_35_174
*1389 FILLER_0_35_2
*1390 FILLER_0_35_206
*1391 FILLER_0_35_212
*1392 FILLER_0_35_230
*1393 FILLER_0_35_270
*1394 FILLER_0_35_278
*1395 FILLER_0_35_282
*1396 FILLER_0_35_290
*1397 FILLER_0_35_294
*1398 FILLER_0_35_296
*1399 FILLER_0_35_311
*1400 FILLER_0_35_327
*1401 FILLER_0_35_331
*1402 FILLER_0_35_34
*1403 FILLER_0_35_341
*1404 FILLER_0_35_343
*1405 FILLER_0_35_352
*1406 FILLER_0_35_42
*1407 FILLER_0_35_46
*1408 FILLER_0_35_49
*1409 FILLER_0_35_65
*1410 FILLER_0_35_69
*1411 FILLER_0_35_72
*1412 FILLER_0_35_74
*1413 FILLER_0_36_102
*1414 FILLER_0_36_104
*1415 FILLER_0_36_107
*1416 FILLER_0_36_111
*1417 FILLER_0_36_174
*1418 FILLER_0_36_177
*1419 FILLER_0_36_2
*1420 FILLER_0_36_227
*1421 FILLER_0_36_243
*1422 FILLER_0_36_247
*1423 FILLER_0_36_251
*1424 FILLER_0_36_311
*1425 FILLER_0_36_322
*1426 FILLER_0_36_34
*1427 FILLER_0_36_354
*1428 FILLER_0_36_363
*1429 FILLER_0_36_37
*1430 FILLER_0_36_379
*1431 FILLER_0_36_383
*1432 FILLER_0_36_45
*1433 FILLER_0_36_61
*1434 FILLER_0_36_73
*1435 FILLER_0_36_81
*1436 FILLER_0_36_85
*1437 FILLER_0_36_92
*1438 FILLER_0_37_106
*1439 FILLER_0_37_114
*1440 FILLER_0_37_124
*1441 FILLER_0_37_149
*1442 FILLER_0_37_157
*1443 FILLER_0_37_159
*1444 FILLER_0_37_170
*1445 FILLER_0_37_178
*1446 FILLER_0_37_192
*1447 FILLER_0_37_2
*1448 FILLER_0_37_208
*1449 FILLER_0_37_212
*1450 FILLER_0_37_222
*1451 FILLER_0_37_254
*1452 FILLER_0_37_258
*1453 FILLER_0_37_261
*1454 FILLER_0_37_277
*1455 FILLER_0_37_279
*1456 FILLER_0_37_282
*1457 FILLER_0_37_286
*1458 FILLER_0_37_288
*1459 FILLER_0_37_328
*1460 FILLER_0_37_344
*1461 FILLER_0_37_348
*1462 FILLER_0_37_352
*1463 FILLER_0_37_354
*1464 FILLER_0_37_36
*1465 FILLER_0_37_362
*1466 FILLER_0_37_378
*1467 FILLER_0_37_382
*1468 FILLER_0_37_40
*1469 FILLER_0_37_44
*1470 FILLER_0_37_6
*1471 FILLER_0_37_62
*1472 FILLER_0_37_66
*1473 FILLER_0_37_72
*1474 FILLER_0_37_88
*1475 FILLER_0_37_92
*1476 FILLER_0_38_100
*1477 FILLER_0_38_104
*1478 FILLER_0_38_107
*1479 FILLER_0_38_115
*1480 FILLER_0_38_128
*1481 FILLER_0_38_136
*1482 FILLER_0_38_142
*1483 FILLER_0_38_174
*1484 FILLER_0_38_177
*1485 FILLER_0_38_2
*1486 FILLER_0_38_209
*1487 FILLER_0_38_213
*1488 FILLER_0_38_227
*1489 FILLER_0_38_243
*1490 FILLER_0_38_247
*1491 FILLER_0_38_279
*1492 FILLER_0_38_295
*1493 FILLER_0_38_299
*1494 FILLER_0_38_303
*1495 FILLER_0_38_305
*1496 FILLER_0_38_314
*1497 FILLER_0_38_317
*1498 FILLER_0_38_333
*1499 FILLER_0_38_34
*1500 FILLER_0_38_341
*1501 FILLER_0_38_37
*1502 FILLER_0_38_381
*1503 FILLER_0_38_383
*1504 FILLER_0_38_45
*1505 FILLER_0_38_59
*1506 FILLER_0_38_63
*1507 FILLER_0_38_79
*1508 FILLER_0_38_85
*1509 FILLER_0_38_89
*1510 FILLER_0_38_91
*1511 FILLER_0_39_101
*1512 FILLER_0_39_117
*1513 FILLER_0_39_121
*1514 FILLER_0_39_123
*1515 FILLER_0_39_132
*1516 FILLER_0_39_136
*1517 FILLER_0_39_142
*1518 FILLER_0_39_158
*1519 FILLER_0_39_166
*1520 FILLER_0_39_170
*1521 FILLER_0_39_179
*1522 FILLER_0_39_183
*1523 FILLER_0_39_2
*1524 FILLER_0_39_204
*1525 FILLER_0_39_208
*1526 FILLER_0_39_220
*1527 FILLER_0_39_252
*1528 FILLER_0_39_255
*1529 FILLER_0_39_259
*1530 FILLER_0_39_275
*1531 FILLER_0_39_279
*1532 FILLER_0_39_282
*1533 FILLER_0_39_34
*1534 FILLER_0_39_346
*1535 FILLER_0_39_352
*1536 FILLER_0_39_50
*1537 FILLER_0_39_58
*1538 FILLER_0_39_62
*1539 FILLER_0_39_69
*1540 FILLER_0_39_72
*1541 FILLER_0_39_97
*1542 FILLER_0_3_123
*1543 FILLER_0_3_127
*1544 FILLER_0_3_135
*1545 FILLER_0_3_139
*1546 FILLER_0_3_142
*1547 FILLER_0_3_174
*1548 FILLER_0_3_198
*1549 FILLER_0_3_2
*1550 FILLER_0_3_206
*1551 FILLER_0_3_212
*1552 FILLER_0_3_216
*1553 FILLER_0_3_226
*1554 FILLER_0_3_228
*1555 FILLER_0_3_241
*1556 FILLER_0_3_273
*1557 FILLER_0_3_277
*1558 FILLER_0_3_279
*1559 FILLER_0_3_282
*1560 FILLER_0_3_346
*1561 FILLER_0_3_352
*1562 FILLER_0_3_66
*1563 FILLER_0_3_72
*1564 FILLER_0_3_88
*1565 FILLER_0_3_92
*1566 FILLER_0_40_104
*1567 FILLER_0_40_107