*SPEF "ieee 1481-1999"
*DESIGN "hellorld"
*DATE "11:11:11 Fri 11 11, 1111"
*VENDOR "OpenRCX"
*PROGRAM "Parallel Extraction"
*VERSION "1.0"
*DESIGN_FLOW "NAME_SCOPE LOCAL" "PIN_CAP NONE"
*DIVIDER /
*DELIMITER :
*BUS_DELIMITER []
*T_UNIT 1 NS
*C_UNIT 1 PF
*R_UNIT 1 OHM
*L_UNIT 1 HENRY

*NAME_MAP
*1 custom_settings[0]
*2 custom_settings[10]
*3 custom_settings[11]
*4 custom_settings[1]
*5 custom_settings[2]
*6 custom_settings[3]
*7 custom_settings[4]
*8 custom_settings[5]
*9 custom_settings[6]
*10 custom_settings[7]
*11 custom_settings[8]
*12 custom_settings[9]
*13 io_out
*14 rst_n
*17 wb_clk_i
*18 _000_
*19 _001_
*20 _002_
*21 _003_
*22 _004_
*23 _005_
*24 _006_
*25 _007_
*26 _008_
*27 _009_
*28 _010_
*29 _011_
*30 _012_
*31 _013_
*32 _014_
*33 _015_
*34 _016_
*35 _017_
*36 _018_
*37 _019_
*38 _020_
*39 _021_
*40 _022_
*41 _023_
*42 _024_
*43 _025_
*44 _026_
*45 _027_
*46 _028_
*47 _029_
*48 _030_
*49 _031_
*50 _032_
*51 _033_
*52 _034_
*53 _035_
*54 _036_
*55 _037_
*56 _038_
*57 _039_
*58 _040_
*59 _041_
*60 _042_
*61 _043_
*62 _044_
*63 _045_
*64 _046_
*65 _047_
*66 _048_
*67 _049_
*68 _050_
*69 _051_
*70 _052_
*71 _053_
*72 _054_
*73 _055_
*74 _056_
*75 _057_
*76 _058_
*77 _059_
*78 _060_
*79 _061_
*80 _062_
*81 _063_
*82 _064_
*83 _065_
*84 _066_
*85 _067_
*86 _068_
*87 _069_
*88 _070_
*89 _071_
*90 _072_
*91 _073_
*92 _074_
*93 _075_
*94 _076_
*95 _077_
*96 _078_
*97 _079_
*98 _080_
*99 _081_
*100 _082_
*101 _083_
*102 _084_
*103 _085_
*104 _086_
*105 _087_
*106 _088_
*107 _089_
*108 _090_
*109 _091_
*110 _092_
*111 _093_
*112 _094_
*113 _095_
*114 _096_
*115 _097_
*116 _098_
*117 _099_
*118 _100_
*119 _101_
*120 _102_
*121 _103_
*122 _104_
*123 _105_
*124 _106_
*125 _107_
*126 _108_
*127 _109_
*128 _110_
*129 _111_
*130 _112_
*131 _113_
*132 _114_
*133 _115_
*134 _116_
*135 _117_
*136 _118_
*137 _119_
*138 _120_
*139 _121_
*140 _122_
*141 _123_
*142 _124_
*143 _125_
*144 _126_
*145 _127_
*146 _128_
*147 _129_
*148 _130_
*149 _131_
*150 _132_
*151 _133_
*152 _134_
*153 _135_
*154 _136_
*155 _137_
*156 _138_
*157 _139_
*158 _140_
*159 _141_
*160 _142_
*161 _143_
*162 _144_
*163 _145_
*164 _146_
*165 _147_
*166 _148_
*167 _149_
*168 _150_
*169 _151_
*170 _152_
*171 _153_
*172 _154_
*173 _155_
*174 _156_
*175 _157_
*176 _158_
*177 _159_
*178 _160_
*179 _161_
*180 _162_
*181 _163_
*182 _164_
*183 _165_
*184 _166_
*185 _167_
*186 _168_
*187 _169_
*188 _170_
*189 _171_
*190 _172_
*191 _173_
*192 _174_
*193 _175_
*194 _176_
*195 baud_delay\[0\]
*196 baud_delay\[10\]
*197 baud_delay\[11\]
*198 baud_delay\[1\]
*199 baud_delay\[2\]
*200 baud_delay\[3\]
*201 baud_delay\[4\]
*202 baud_delay\[5\]
*203 baud_delay\[6\]
*204 baud_delay\[7\]
*205 baud_delay\[8\]
*206 baud_delay\[9\]
*207 char_at\[0\]
*208 char_at\[1\]
*209 char_at\[2\]
*210 char_at\[3\]
*211 char_at\[4\]
*212 char_at\[5\]
*213 char_at\[6\]
*214 char_pointer\[0\]
*215 char_pointer\[1\]
*216 char_pointer\[2\]
*217 char_pointer\[3\]
*218 clknet_0_wb_clk_i
*219 clknet_2_0__leaf_wb_clk_i
*220 clknet_2_1__leaf_wb_clk_i
*221 clknet_2_2__leaf_wb_clk_i
*222 clknet_2_3__leaf_wb_clk_i
*223 frame_counter\[0\]
*224 frame_counter\[1\]
*225 frame_counter\[2\]
*226 frame_counter\[3\]
*227 net1
*228 net10
*229 net11
*230 net12
*231 net13
*232 net14
*233 net15
*234 net16
*235 net17
*236 net18
*237 net2
*238 net3
*239 net4
*240 net5
*241 net6
*242 net7
*243 net8
*244 net9
*245 uart_frame\[0\]
*246 uart_frame\[1\]
*247 uart_frame\[2\]
*248 uart_frame\[3\]
*249 uart_frame\[4\]
*250 uart_frame\[5\]
*251 uart_frame\[6\]
*252 uart_frame\[7\]
*253 uart_frame\[8\]
*254 uart_frame\[9\]
*255 ANTENNA__366__CLK
*256 ANTENNA__368__CLK
*257 ANTENNA__369__CLK
*258 ANTENNA__370__CLK
*259 ANTENNA__371__CLK
*260 ANTENNA__372__CLK
*261 ANTENNA__373__CLK
*262 ANTENNA__374__CLK
*263 ANTENNA__381__CLK
*264 ANTENNA__383__CLK
*265 ANTENNA_clkbuf_0_wb_clk_i_I
*266 ANTENNA_input10_I
*267 ANTENNA_input11_I
*268 ANTENNA_input12_I
*269 ANTENNA_input13_I
*270 ANTENNA_input1_I
*271 ANTENNA_input2_I
*272 ANTENNA_input3_I
*273 ANTENNA_input4_I
*274 ANTENNA_input5_I
*275 ANTENNA_input6_I
*276 ANTENNA_input7_I
*277 ANTENNA_input8_I
*278 ANTENNA_input9_I
*279 FILLER_0_0_104
*280 FILLER_0_0_138
*281 FILLER_0_0_172
*282 FILLER_0_0_188
*283 FILLER_0_0_2
*284 FILLER_0_0_36
*285 FILLER_0_0_70
*286 FILLER_0_10_10
*287 FILLER_0_10_103
*288 FILLER_0_10_122
*289 FILLER_0_10_124
*290 FILLER_0_10_2
*291 FILLER_0_10_20
*292 FILLER_0_10_28
*293 FILLER_0_10_32
*294 FILLER_0_10_34
*295 FILLER_0_10_37
*296 FILLER_0_10_41
*297 FILLER_0_10_92
*298 FILLER_0_10_96
*299 FILLER_0_11_120
*300 FILLER_0_11_142
*301 FILLER_0_11_188
*302 FILLER_0_11_190
*303 FILLER_0_11_2
*304 FILLER_0_11_205
*305 FILLER_0_11_33
*306 FILLER_0_11_37
*307 FILLER_0_11_68
*308 FILLER_0_11_72
*309 FILLER_0_12_102
*310 FILLER_0_12_104
*311 FILLER_0_12_107
*312 FILLER_0_12_111
*313 FILLER_0_12_113
*314 FILLER_0_12_143
*315 FILLER_0_12_147
*316 FILLER_0_12_149
*317 FILLER_0_12_162
*318 FILLER_0_12_166
*319 FILLER_0_12_183
*320 FILLER_0_12_203
*321 FILLER_0_12_205
*322 FILLER_0_12_31
*323 FILLER_0_12_37
*324 FILLER_0_12_41
*325 FILLER_0_12_54
*326 FILLER_0_12_56
*327 FILLER_0_12_86
*328 FILLER_0_13_146
*329 FILLER_0_13_153
*330 FILLER_0_13_161
*331 FILLER_0_13_18
*332 FILLER_0_13_197
*333 FILLER_0_13_199
*334 FILLER_0_13_2
*335 FILLER_0_13_26
*336 FILLER_0_13_30
*337 FILLER_0_13_53
*338 FILLER_0_13_55
*339 FILLER_0_13_64
*340 FILLER_0_13_68
*341 FILLER_0_13_78
*342 FILLER_0_13_86
*343 FILLER_0_14_107
*344 FILLER_0_14_115
*345 FILLER_0_14_120
*346 FILLER_0_14_132
*347 FILLER_0_14_172
*348 FILLER_0_14_174
*349 FILLER_0_14_177
*350 FILLER_0_14_18
*351 FILLER_0_14_193
*352 FILLER_0_14_197
*353 FILLER_0_14_22
*354 FILLER_0_14_24
*355 FILLER_0_14_33
*356 FILLER_0_14_37
*357 FILLER_0_14_41
*358 FILLER_0_14_54
*359 FILLER_0_14_84
*360 FILLER_0_14_92
*361 FILLER_0_14_96
*362 FILLER_0_15_101
*363 FILLER_0_15_109
*364 FILLER_0_15_113
*365 FILLER_0_15_130
*366 FILLER_0_15_138
*367 FILLER_0_15_148
*368 FILLER_0_15_164
*369 FILLER_0_15_174
*370 FILLER_0_15_178
*371 FILLER_0_15_180
*372 FILLER_0_15_2
*373 FILLER_0_15_38
*374 FILLER_0_15_4
*375 FILLER_0_15_42
*376 FILLER_0_15_65
*377 FILLER_0_15_69
*378 FILLER_0_16_102
*379 FILLER_0_16_104
*380 FILLER_0_16_112
*381 FILLER_0_16_137
*382 FILLER_0_16_170
*383 FILLER_0_16_174
*384 FILLER_0_16_185
*385 FILLER_0_16_187
*386 FILLER_0_16_2
*387 FILLER_0_16_27
*388 FILLER_0_16_37
*389 FILLER_0_16_49
*390 FILLER_0_16_51
*391 FILLER_0_16_6
*392 FILLER_0_17_12
*393 FILLER_0_17_136
*394 FILLER_0_17_18
*395 FILLER_0_17_2
*396 FILLER_0_17_20
*397 FILLER_0_17_205
*398 FILLER_0_17_51
*399 FILLER_0_17_60
*400 FILLER_0_17_68
*401 FILLER_0_17_8
*402 FILLER_0_17_84
*403 FILLER_0_18_107
*404 FILLER_0_18_111
*405 FILLER_0_18_113
*406 FILLER_0_18_119
*407 FILLER_0_18_127
*408 FILLER_0_18_142
*409 FILLER_0_18_146
*410 FILLER_0_18_153
*411 FILLER_0_18_157
*412 FILLER_0_18_164
*413 FILLER_0_18_166
*414 FILLER_0_18_177
*415 FILLER_0_18_193
*416 FILLER_0_18_197
*417 FILLER_0_18_199
*418 FILLER_0_18_24
*419 FILLER_0_18_29
*420 FILLER_0_18_33
*421 FILLER_0_18_55
*422 FILLER_0_18_69
*423 FILLER_0_18_78
*424 FILLER_0_18_82
*425 FILLER_0_18_91
*426 FILLER_0_18_97
*427 FILLER_0_19_105
*428 FILLER_0_19_127
*429 FILLER_0_19_135
*430 FILLER_0_19_139
*431 FILLER_0_19_148
*432 FILLER_0_19_156
*433 FILLER_0_19_201
*434 FILLER_0_19_205
*435 FILLER_0_1_136
*436 FILLER_0_1_142
*437 FILLER_0_1_174
*438 FILLER_0_1_190
*439 FILLER_0_1_2
*440 FILLER_0_1_66
*441 FILLER_0_1_72
*442 FILLER_0_20_10
*443 FILLER_0_20_103
*444 FILLER_0_20_107
*445 FILLER_0_20_109
*446 FILLER_0_20_128
*447 FILLER_0_20_132
*448 FILLER_0_20_14
*449 FILLER_0_20_16
*450 FILLER_0_20_169
*451 FILLER_0_20_173
*452 FILLER_0_20_2
*453 FILLER_0_20_201
*454 FILLER_0_20_205
*455 FILLER_0_20_30
*456 FILLER_0_20_34
*457 FILLER_0_20_37
*458 FILLER_0_20_67
*459 FILLER_0_20_90
*460 FILLER_0_21_100
*461 FILLER_0_21_118
*462 FILLER_0_21_126
*463 FILLER_0_21_142
*464 FILLER_0_21_152
*465 FILLER_0_21_154
*466 FILLER_0_21_157
*467 FILLER_0_21_18
*468 FILLER_0_21_2
*469 FILLER_0_21_205
*470 FILLER_0_21_22
*471 FILLER_0_21_24
*472 FILLER_0_21_34
*473 FILLER_0_21_42
*474 FILLER_0_21_62
*475 FILLER_0_21_64
*476 FILLER_0_21_79
*477 FILLER_0_21_92
*478 FILLER_0_22_101
*479 FILLER_0_22_107
*480 FILLER_0_22_123
*481 FILLER_0_22_125
*482 FILLER_0_22_155
*483 FILLER_0_22_174
*484 FILLER_0_22_177
*485 FILLER_0_22_2
*486 FILLER_0_22_205
*487 FILLER_0_22_37
*488 FILLER_0_22_53
*489 FILLER_0_22_85
*490 FILLER_0_23_131
*491 FILLER_0_23_135
*492 FILLER_0_23_139
*493 FILLER_0_23_18
*494 FILLER_0_23_2
*495 FILLER_0_23_205
*496 FILLER_0_23_26
*497 FILLER_0_23_30
*498 FILLER_0_23_66
*499 FILLER_0_23_72
*500 FILLER_0_24_110
*501 FILLER_0_24_126
*502 FILLER_0_24_134
*503 FILLER_0_24_138
*504 FILLER_0_24_156
*505 FILLER_0_24_160
*506 FILLER_0_24_2
*507 FILLER_0_24_36
*508 FILLER_0_24_70
*509 FILLER_0_24_86
*510 FILLER_0_24_94
*511 FILLER_0_24_98
*512 FILLER_0_2_102
*513 FILLER_0_2_104
*514 FILLER_0_2_107
*515 FILLER_0_2_171
*516 FILLER_0_2_177
*517 FILLER_0_2_193
*518 FILLER_0_2_197
*519 FILLER_0_2_2
*520 FILLER_0_2_34
*521 FILLER_0_2_37
*522 FILLER_0_2_45
*523 FILLER_0_2_78
*524 FILLER_0_2_94
*525 FILLER_0_3_10
*526 FILLER_0_3_117
*527 FILLER_0_3_133
*528 FILLER_0_3_137
*529 FILLER_0_3_139
*530 FILLER_0_3_14
*531 FILLER_0_3_142
*532 FILLER_0_3_150
*533 FILLER_0_3_157
*534 FILLER_0_3_174
*535 FILLER_0_3_182
*536 FILLER_0_3_186
*537 FILLER_0_3_2
*538 FILLER_0_3_205
*539 FILLER_0_3_45
*540 FILLER_0_3_61
*541 FILLER_0_3_69
*542 FILLER_0_3_72
*543 FILLER_0_4_102
*544 FILLER_0_4_104
*545 FILLER_0_4_107
*546 FILLER_0_4_168
*547 FILLER_0_4_18
*548 FILLER_0_4_2
*549 FILLER_0_4_32
*550 FILLER_0_4_34
*551 FILLER_0_4_37
*552 FILLER_0_4_53
*553 FILLER_0_4_57
*554 FILLER_0_4_64
*555 FILLER_0_4_80
*556 FILLER_0_4_88
*557 FILLER_0_4_98
*558 FILLER_0_5_105
*559 FILLER_0_5_109
*560 FILLER_0_5_12
*561 FILLER_0_5_142
*562 FILLER_0_5_158
*563 FILLER_0_5_162
*564 FILLER_0_5_169
*565 FILLER_0_5_183
*566 FILLER_0_5_187
*567 FILLER_0_5_2
*568 FILLER_0_5_203
*569 FILLER_0_5_205
*570 FILLER_0_5_65
*571 FILLER_0_5_69
*572 FILLER_0_5_72
*573 FILLER_0_5_74
*574 FILLER_0_6_103
*575 FILLER_0_6_107
*576 FILLER_0_6_131
*577 FILLER_0_6_147
*578 FILLER_0_6_155
*579 FILLER_0_6_159
*580 FILLER_0_6_171
*581 FILLER_0_6_177
*582 FILLER_0_6_205
*583 FILLER_0_6_31
*584 FILLER_0_6_37
*585 FILLER_0_6_45
*586 FILLER_0_6_99
*587 FILLER_0_7_10
*588 FILLER_0_7_137
*589 FILLER_0_7_139
*590 FILLER_0_7_188
*591 FILLER_0_7_192
*592 FILLER_0_7_2
*593 FILLER_0_7_205
*594 FILLER_0_7_41
*595 FILLER_0_7_55
*596 FILLER_0_7_63
*597 FILLER_0_7_67
*598 FILLER_0_7_69
*599 FILLER_0_7_87
*600 FILLER_0_7_96
*601 FILLER_0_7_98
*602 FILLER_0_8_107
*603 FILLER_0_8_115
*604 FILLER_0_8_127
*605 FILLER_0_8_143
*606 FILLER_0_8_147
*607 FILLER_0_8_31
*608 FILLER_0_8_37
*609 FILLER_0_8_53
*610 FILLER_0_8_61
*611 FILLER_0_8_97
*612 FILLER_0_9_117
*613 FILLER_0_9_119
*614 FILLER_0_9_12
*615 FILLER_0_9_122
*616 FILLER_0_9_138
*617 FILLER_0_9_171
*618 FILLER_0_9_175
*619 FILLER_0_9_177
*620 FILLER_0_9_186
*621 FILLER_0_9_188
*622 FILLER_0_9_2
*623 FILLER_0_9_201
*624 FILLER_0_9_205
*625 FILLER_0_9_58
*626 FILLER_0_9_66
*627 FILLER_0_9_87
*628 PHY_EDGE_ROW_0_Left_25
*629 PHY_EDGE_ROW_0_Right_0
*630 PHY_EDGE_ROW_10_Left_35
*631 PHY_EDGE_ROW_10_Right_10
*632 PHY_EDGE_ROW_11_Left_36
*633 PHY_EDGE_ROW_11_Right_11
*634 PHY_EDGE_ROW_12_Left_37
*635 PHY_EDGE_ROW_12_Right_12
*636 PHY_EDGE_ROW_13_Left_38
*637 PHY_EDGE_ROW_13_Right_13
*638 PHY_EDGE_ROW_14_Left_39
*639 PHY_EDGE_ROW_14_Right_14
*640 PHY_EDGE_ROW_15_Left_40
*641 PHY_EDGE_ROW_15_Right_15
*642 PHY_EDGE_ROW_16_Left_41
*643 PHY_EDGE_ROW_16_Right_16
*644 PHY_EDGE_ROW_17_Left_42
*645 PHY_EDGE_ROW_17_Right_17
*646 PHY_EDGE_ROW_18_Left_43
*647 PHY_EDGE_ROW_18_Right_18
*648 PHY_EDGE_ROW_19_Left_44
*649 PHY_EDGE_ROW_19_Right_19
*650 PHY_EDGE_ROW_1_Left_26
*651 PHY_EDGE_ROW_1_Right_1
*652 PHY_EDGE_ROW_20_Left_45
*653 PHY_EDGE_ROW_20_Right_20
*654 PHY_EDGE_ROW_21_Left_46
*655 PHY_EDGE_ROW_21_Right_21
*656 PHY_EDGE_ROW_22_Left_47
*657 PHY_EDGE_ROW_22_Right_22
*658 PHY_EDGE_ROW_23_Left_48
*659 PHY_EDGE_ROW_23_Right_23
*660 PHY_EDGE_ROW_24_Left_49
*661 PHY_EDGE_ROW_24_Right_24
*662 PHY_EDGE_ROW_2_Left_27
*663 PHY_EDGE_ROW_2_Right_2
*664 PHY_EDGE_ROW_3_Left_28
*665 PHY_EDGE_ROW_3_Right_3
*666 PHY_EDGE_ROW_4_Left_29
*667 PHY_EDGE_ROW_4_Right_4
*668 PHY_EDGE_ROW_5_Left_30
*669 PHY_EDGE_ROW_5_Right_5
*670 PHY_EDGE_ROW_6_Left_31
*671 PHY_EDGE_ROW_6_Right_6
*672 PHY_EDGE_ROW_7_Left_32
*673 PHY_EDGE_ROW_7_Right_7
*674 PHY_EDGE_ROW_8_Left_33
*675 PHY_EDGE_ROW_8_Right_8
*676 PHY_EDGE_ROW_9_Left_34
*677 PHY_EDGE_ROW_9_Right_9
*678 TAP_TAPCELL_ROW_0_50
*679 TAP_TAPCELL_ROW_0_51
*680 TAP_TAPCELL_ROW_0_52
*681 TAP_TAPCELL_ROW_0_53
*682 TAP_TAPCELL_ROW_0_54
*683 TAP_TAPCELL_ROW_0_55
*684 TAP_TAPCELL_ROW_10_78
*685 TAP_TAPCELL_ROW_10_79
*686 TAP_TAPCELL_ROW_10_80
*687 TAP_TAPCELL_ROW_11_81
*688 TAP_TAPCELL_ROW_11_82
*689 TAP_TAPCELL_ROW_12_83
*690 TAP_TAPCELL_ROW_12_84
*691 TAP_TAPCELL_ROW_12_85
*692 TAP_TAPCELL_ROW_13_86
*693 TAP_TAPCELL_ROW_13_87
*694 TAP_TAPCELL_ROW_14_88
*695 TAP_TAPCELL_ROW_14_89
*696 TAP_TAPCELL_ROW_14_90
*697 TAP_TAPCELL_ROW_15_91
*698 TAP_TAPCELL_ROW_15_92
*699 TAP_TAPCELL_ROW_16_93
*700 TAP_TAPCELL_ROW_16_94
*701 TAP_TAPCELL_ROW_16_95
*702 TAP_TAPCELL_ROW_17_96
*703 TAP_TAPCELL_ROW_17_97
*704 TAP_TAPCELL_ROW_18_100
*705 TAP_TAPCELL_ROW_18_98
*706 TAP_TAPCELL_ROW_18_99
*707 TAP_TAPCELL_ROW_19_101
*708 TAP_TAPCELL_ROW_19_102
*709 TAP_TAPCELL_ROW_1_56
*710 TAP_TAPCELL_ROW_1_57
*711 TAP_TAPCELL_ROW_20_103
*712 TAP_TAPCELL_ROW_20_104
*713 TAP_TAPCELL_ROW_20_105
*714 TAP_TAPCELL_ROW_21_106
*715 TAP_TAPCELL_ROW_21_107
*716 TAP_TAPCELL_ROW_22_108
*717 TAP_TAPCELL_ROW_22_109
*718 TAP_TAPCELL_ROW_22_110
*719 TAP_TAPCELL_ROW_23_111
*720 TAP_TAPCELL_ROW_23_112
*721 TAP_TAPCELL_ROW_24_113
*722 TAP_TAPCELL_ROW_24_114
*723 TAP_TAPCELL_ROW_24_115
*724 TAP_TAPCELL_ROW_24_116
*725 TAP_TAPCELL_ROW_24_117
*726 TAP_TAPCELL_ROW_24_118
*727 TAP_TAPCELL_ROW_2_58
*728 TAP_TAPCELL_ROW_2_59
*729 TAP_TAPCELL_ROW_2_60
*730 TAP_TAPCELL_ROW_3_61
*731 TAP_TAPCELL_ROW_3_62
*732 TAP_TAPCELL_ROW_4_63
*733 TAP_TAPCELL_ROW_4_64
*734 TAP_TAPCELL_ROW_4_65
*735 TAP_TAPCELL_ROW_5_66
*736 TAP_TAPCELL_ROW_5_67
*737 TAP_TAPCELL_ROW_6_68
*738 TAP_TAPCELL_ROW_6_69
*739 TAP_TAPCELL_ROW_6_70
*740 TAP_TAPCELL_ROW_7_71
*741 TAP_TAPCELL_ROW_7_72
*742 TAP_TAPCELL_ROW_8_73
*743 TAP_TAPCELL_ROW_8_74
*744 TAP_TAPCELL_ROW_8_75
*745 TAP_TAPCELL_ROW_9_76
*746 TAP_TAPCELL_ROW_9_77
*747 _177_
*748 _178_
*749 _179_
*750 _180_
*751 _181_
*752 _182_
*753 _183_
*754 _184_
*755 _185_
*756 _186_
*757 _187_
*758 _188_
*759 _189_
*760 _190_
*761 _191_
*762 _192_
*763 _193_
*764 _194_
*765 _195_
*766 _196_
*767 _197_
*768 _198_
*769 _199_
*770 _200_
*771 _201_
*772 _202_
*773 _203_
*774 _204_
*775 _205_
*776 _206_
*777 _207_
*778 _208_
*779 _209_
*780 _210_
*781 _211_
*782 _212_
*783 _213_
*784 _214_
*785 _215_
*786 _216_
*787 _217_
*788 _218_
*789 _219_
*790 _220_
*791 _221_
*792 _222_
*793 _223_
*794 _224_
*795 _225_
*796 _226_
*797 _227_
*798 _228_
*799 _229_
*800 _230_
*801 _231_
*802 _232_
*803 _233_
*804 _234_
*805 _235_
*806 _236_
*807 _237_
*808 _238_
*809 _239_
*810 _240_
*811 _241_
*812 _242_
*813 _243_
*814 _244_
*815 _245_
*816 _246_
*817 _247_
*818 _248_
*819 _249_
*820 _250_
*821 _251_
*822 _252_
*823 _253_
*824 _254_
*825 _255_
*826 _256_
*827 _257_
*828 _258_
*829 _259_
*830 _260_
*831 _261_
*832 _262_
*833 _263_
*834 _264_
*835 _265_
*836 _266_
*837 _267_
*838 _268_
*839 _269_
*840 _270_
*841 _271_
*842 _272_
*843 _273_
*844 _274_
*845 _275_
*846 _276_
*847 _277_
*848 _278_
*849 _279_
*850 _280_
*851 _281_
*852 _282_
*853 _283_
*854 _284_
*855 _285_
*856 _286_
*857 _287_
*858 _288_
*859 _289_
*860 _290_
*861 _291_
*862 _292_
*863 _293_
*864 _294_
*865 _295_
*866 _296_
*867 _297_
*868 _298_
*869 _299_
*870 _300_
*871 _301_
*872 _302_
*873 _303_
*874 _304_
*875 _305_
*876 _306_
*877 _307_
*878 _308_
*879 _309_
*880 _310_
*881 _311_
*882 _312_
*883 _313_
*884 _314_
*885 _315_
*886 _316_
*887 _317_
*888 _318_
*889 _319_
*890 _320_
*891 _321_
*892 _322_
*893 _323_
*894 _324_
*895 _325_
*896 _326_
*897 _327_
*898 _328_
*899 _329_
*900 _330_
*901 _331_
*902 _332_
*903 _333_
*904 _334_
*905 _335_
*906 _336_
*907 _337_
*908 _338_
*909 _339_
*910 _340_
*911 _341_
*912 _342_
*913 _343_
*914 _344_
*915 _345_
*916 _346_
*917 _347_
*918 _348_
*919 _349_
*920 _350_
*921 _351_
*922 _352_
*923 _353_
*924 _354_
*925 _355_
*926 _356_
*927 _357_
*928 _358_
*929 _359_
*930 _360_
*931 _361_
*932 _362_
*933 _363_
*934 _364_
*935 _365_
*936 _366_
*937 _367_
*938 _368_
*939 _369_
*940 _370_
*941 _371_
*942 _372_
*943 _373_
*944 _374_
*945 _375_
*946 _376_
*947 _377_
*948 _378_
*949 _379_
*950 _380_
*951 _381_
*952 _382_
*953 _383_
*954 _384_
*955 _385_
*956 _386_
*957 _387_
*958 _388_
*959 _389_
*960 _390_
*961 _391_
*962 clkbuf_0_wb_clk_i
*963 clkbuf_2_0__f_wb_clk_i
*964 clkbuf_2_1__f_wb_clk_i
*965 clkbuf_2_2__f_wb_clk_i
*966 clkbuf_2_3__f_wb_clk_i
*967 input1
*968 input10
*969 input11
*970 input12
*971 input13
*972 input2
*973 input3
*974 input4
*975 input5
*976 input6
*977 input7
*978 input8
*979 input9
*980 output14
*981 rebuffer1
*982 rebuffer2
*983 rebuffer3
*984 rebuffer4

*PORTS
custom_settings[0] I
custom_settings[10] I
custom_settings[11] I
custom_settings[1] I
custom_settings[2] I
custom_settings[3] I
custom_settings[4] I
custom_settings[5] I
custom_settings[6] I
custom_settings[7] I
custom_settings[8] I
custom_settings[9] I
io_out O
rst_n I
wb_clk_i I

*D_NET *1 0.00163473
*CONN
*P custom_settings[0] I
*I *967:I I *D gf180mcu_fd_sc_mcu7t5v0__clkbuf_1
*I *270:I I *D gf180mcu_fd_sc_mcu7t5v0__antenna
*CAP
1 custom_settings[0] 0.00063509
2 *967:I 0
3 *270:I 0.00018083
4 *1:9 0.00081592
5 *270:I *273:I 0
6 *1:9 *830:A2 2.89427e-06
*RES
1 custom_settings[0] *1:9 9.135 
2 *1:9 *270:I 14.58 
3 *1:9 *967:I 4.5 
*END

*D_NET *2 0.00345668
*CONN
*P custom_settings[10] I
*I *972:I I *D gf180mcu_fd_sc_mcu7t5v0__clkbuf_1
*I *271:I I *D gf180mcu_fd_sc_mcu7t5v0__antenna
*CAP
1 custom_settings[10] 0.00080395
2 *972:I 5.23033e-05
3 *271:I 0.000322364
4 *2:9 0.00117862
5 *271:I *980:I 0.000253169
6 *972:I *829:A1 7.191e-07
7 *972:I *833:A1 1.0415e-05
8 *972:I *980:I 2.18528e-05
9 *972:I *3:11 5.97457e-06
10 *2:9 io_out 0.000127476
11 *2:9 *833:A1 0.000654551
12 *2:9 *980:I 2.52908e-05
*RES
1 custom_settings[10] *2:9 7.425 
2 *2:9 *271:I 11.79 
3 *2:9 *972:I 9.45 
*END

*D_NET *3 0.00309253
*CONN
*P custom_settings[11] I
*I *973:I I *D gf180mcu_fd_sc_mcu7t5v0__clkbuf_1
*I *272:I I *D gf180mcu_fd_sc_mcu7t5v0__antenna
*CAP
1 custom_settings[11] 0.0014628
2 *973:I 0
3 *272:I 8.0476e-05
4 *3:11 0.00154328
5 *3:11 io_out 0
6 *972:I *3:11 5.97457e-06
*RES
1 custom_settings[11] *3:11 15.885 
2 *3:11 *272:I 5.13 
3 *3:11 *973:I 4.5 
*END

*D_NET *4 0.0011349
*CONN
*P custom_settings[1] I
*I *974:I I *D gf180mcu_fd_sc_mcu7t5v0__clkbuf_1
*I *273:I I *D gf180mcu_fd_sc_mcu7t5v0__antenna
*CAP
1 custom_settings[1] 0.000401466
2 *974:I 2.63011e-05
3 *273:I 0.000114221
4 *4:9 0.000541988
5 *273:I *828:A1 3.22122e-05
6 *273:I *830:A2 0
7 *974:I *830:A2 5.30888e-06
8 *4:9 *830:A2 1.34043e-05
9 *270:I *273:I 0
*RES
1 custom_settings[1] *4:9 6.795 
2 *4:9 *273:I 5.49 
3 *4:9 *974:I 4.77 
*END

*D_NET *5 0.00136872
*CONN
*P custom_settings[2] I
*I *274:I I *D gf180mcu_fd_sc_mcu7t5v0__antenna
*I *975:I I *D gf180mcu_fd_sc_mcu7t5v0__clkbuf_1
*CAP
1 custom_settings[2] 0.000421151
2 *274:I 0.000160747
3 *975:I 3.71194e-05
4 *5:9 0.000619017
5 *975:I *823:A1 2.30981e-05
6 *5:9 *823:A1 0.000107592
*RES
1 custom_settings[2] *5:9 7.335 
2 *5:9 *975:I 4.77 
3 *5:9 *274:I 14.49 
*END

*D_NET *6 0.00188719
*CONN
*P custom_settings[3] I
*I *275:I I *D gf180mcu_fd_sc_mcu7t5v0__antenna
*I *976:I I *D gf180mcu_fd_sc_mcu7t5v0__clkbuf_1
*CAP
1 custom_settings[3] 0.000614652
2 *275:I 0
3 *976:I 0.000109676
4 *6:11 0.000724327
5 *976:I *766:A1 9.98816e-05
6 *976:I *832:A3 6.76694e-05
7 *976:I *834:A1 4.83522e-05
8 *6:11 *830:A1 0.000222631
9 *6:11 *834:A1 0
10 *6:11 *198:12 0
*RES
1 custom_settings[3] *6:11 9.225 
2 *6:11 *976:I 5.76 
3 *6:11 *275:I 4.5 
*END

*D_NET *7 0.00414141
*CONN
*P custom_settings[4] I
*I *276:I I *D gf180mcu_fd_sc_mcu7t5v0__antenna
*I *977:I I *D gf180mcu_fd_sc_mcu7t5v0__clkbuf_1
*CAP
1 custom_settings[4] 0.000702365
2 *276:I 0
3 *977:I 0.000215483
4 *7:9 0.000917847
5 *977:I *763:A2 0.000209288
6 *977:I *768:A1 8.12065e-05
7 *977:I *768:A3 3.99116e-05
8 *977:I *823:A2 0.000586632
9 *977:I *835:A1 1.0415e-05
10 *977:I *199:29 0.000417531
11 *977:I *200:12 0.000269822
12 *7:9 *763:B 0
13 *7:9 *823:A2 6.36165e-05
14 *7:9 *827:A1 9.57102e-05
15 *7:9 *835:A1 0.000518371
16 *7:9 *935:D 1.32133e-05
17 *7:9 *200:10 0
18 *7:9 *200:12 0
*RES
1 custom_settings[4] *7:9 9.675 
2 *7:9 *977:I 17.28 
3 *7:9 *276:I 4.5 
*END

*D_NET *8 0.00399644
*CONN
*P custom_settings[5] I
*I *978:I I *D gf180mcu_fd_sc_mcu7t5v0__clkbuf_1
*I *277:I I *D gf180mcu_fd_sc_mcu7t5v0__antenna
*CAP
1 custom_settings[5] 0.000262285
2 *978:I 0.000509549
3 *277:I 0.000203379
4 *8:7 0.000975213
5 *277:I *832:A2 4.15093e-05
6 *277:I *837:A2 0.000639178
7 *978:I *256:I 7.6387e-05
8 *978:I *826:A1 0.000671844
9 *978:I *832:A2 8.35152e-05
10 *978:I *835:A2 5.51025e-05
11 *978:I *837:A2 0.000411137
12 *978:I *9:13 4.08178e-05
13 *978:I *203:20 0
14 *8:7 *832:A2 2.65236e-05
*RES
1 custom_settings[5] *8:7 5.985 
2 *8:7 *277:I 6.66 
3 *8:7 *978:I 18.63 
*END

*D_NET *9 0.0043134
*CONN
*P custom_settings[6] I
*I *979:I I *D gf180mcu_fd_sc_mcu7t5v0__clkbuf_1
*I *278:I I *D gf180mcu_fd_sc_mcu7t5v0__antenna
*CAP
1 custom_settings[6] 0.00101066
2 *979:I 1.72676e-05
3 *278:I 7.31549e-05
4 *9:13 0.00110108
5 *278:I *142:22 7.96333e-06
6 *278:I *222:60 7.96333e-06
7 *979:I *142:22 0.000106536
8 *979:I *150:8 0
9 *9:13 *826:A1 0.000156874
10 *9:13 *835:A2 0.000969765
11 *9:13 *142:22 0.000167714
12 *9:13 *150:8 0
13 *9:13 *222:68 0.000653601
14 *978:I *9:13 4.08178e-05
*RES
1 custom_settings[6] *9:13 13.815 
2 *9:13 *278:I 5.13 
3 *9:13 *979:I 4.77 
*END

*D_NET *10 0.00393977
*CONN
*P custom_settings[7] I
*I *266:I I *D gf180mcu_fd_sc_mcu7t5v0__antenna
*I *968:I I *D gf180mcu_fd_sc_mcu7t5v0__clkbuf_1
*CAP
1 custom_settings[7] 0.000426587
2 *266:I 0.000296015
3 *968:I 0.000191608
4 *10:9 0.000914211
5 *266:I *824:A1 6.17613e-06
6 *266:I *835:A2 0
7 *266:I *837:A2 0.000411711
8 *266:I *837:A3 6.48499e-05
9 *266:I *901:A1 8.80744e-05
10 *266:I *56:18 2.82637e-05
11 *968:I *827:A4 0.000397667
12 *968:I *832:A2 4.76126e-05
13 *968:I *835:A2 3.01487e-05
14 *968:I *984:I 0.000169515
15 *10:9 *832:A2 0.000101303
16 *10:9 *841:A1 0.000233586
17 *10:9 *984:I 0.000532443
*RES
1 custom_settings[7] *10:9 8.055 
2 *10:9 *968:I 6.75 
3 *10:9 *266:I 16.47 
*END

*D_NET *11 0.0029907
*CONN
*P custom_settings[8] I
*I *267:I I *D gf180mcu_fd_sc_mcu7t5v0__antenna
*I *969:I I *D gf180mcu_fd_sc_mcu7t5v0__clkbuf_1
*CAP
1 custom_settings[8] 0.000493243
2 *267:I 7.24709e-05
3 *969:I 0.00049087
4 *11:13 0.00105658
5 *267:I *832:A2 0
6 *267:I *837:A1 0.000223407
7 *969:I *258:I 0.000167288
8 *969:I *825:A1 2.84883e-05
9 *969:I *827:A3 0
10 *969:I *833:A2 2.89427e-06
11 *969:I *836:A1 0.000198568
12 *969:I *222:106 0.000256882
*RES
1 custom_settings[8] *11:13 4.005 
2 *11:13 *969:I 13.5 
3 *11:13 *267:I 9.63 
*END

*D_NET *12 0.00298354
*CONN
*P custom_settings[9] I
*I *268:I I *D gf180mcu_fd_sc_mcu7t5v0__antenna
*I *970:I I *D gf180mcu_fd_sc_mcu7t5v0__clkbuf_1
*CAP
1 custom_settings[9] 0.000793022
2 *268:I 0.000144204
3 *970:I 3.9681e-05
4 *12:5 0.000976907
5 *268:I *794:A2 1.80559e-05
6 *268:I *794:A3 3.01487e-05
7 *268:I *795:A2 1.7061e-05
8 *268:I *825:A1 3.98088e-05
9 *268:I *943:D 4.6613e-06
10 *268:I *943:CLK 4.33758e-05
11 *970:I *943:CLK 0.000109323
12 *970:I *161:21 0.000134392
13 *970:I *196:12 7.69699e-05
14 *12:5 *788:A2 8.0131e-05
15 *12:5 *825:A1 0
16 *12:5 *825:A2 3.5841e-05
17 *12:5 *833:A2 0.000357848
18 *12:5 *161:21 1.5931e-05
19 *12:5 *196:12 6.28681e-05
20 *12:5 *197:12 0
21 *12:5 *206:32 3.31517e-06
*RES
1 custom_settings[9] *12:5 5.985 
2 *12:5 *970:I 9.81 
3 *12:5 *268:I 9.99 
*END

*D_NET *13 0.00185651
*CONN
*P io_out O
*I *980:Z O *D gf180mcu_fd_sc_mcu7t5v0__buf_8
*CAP
1 io_out 0.000864517
2 *980:Z 0.000864517
3 *2:9 io_out 0.000127476
4 *3:11 io_out 0
*RES
1 *980:Z io_out 19.755 
*END

*D_NET *14 0.00168566
*CONN
*P rst_n I
*I *971:I I *D gf180mcu_fd_sc_mcu7t5v0__clkbuf_1
*I *269:I I *D gf180mcu_fd_sc_mcu7t5v0__antenna
*CAP
1 rst_n 0.000623515
2 *971:I 0.000155281
3 *269:I 2.83352e-05
4 *14:5 0.000807131
5 *269:I *231:8 2.7164e-05
6 *971:I *231:8 4.42317e-05
*RES
1 rst_n *14:5 4.545 
2 *14:5 *269:I 4.77 
3 *14:5 *971:I 5.76 
*END

*D_NET *17 0.0118978
*CONN
*P wb_clk_i I
*I *962:I I *D gf180mcu_fd_sc_mcu7t5v0__clkbuf_16
*I *265:I I *D gf180mcu_fd_sc_mcu7t5v0__antenna
*CAP
1 wb_clk_i 0.00322829
2 *962:I 8.0476e-05
3 *265:I 0
4 *17:27 0.00330877
5 *17:27 *820:A2 0.000147172
6 *17:27 *821:I 0.000795521
7 *17:27 *858:A1 0.000170561
8 *17:27 *858:A2 1.47439e-05
9 *17:27 *865:A3 1.56862e-05
10 *17:27 *875:A2 0.000131469
11 *17:27 *876:A1 7.69936e-06
12 *17:27 *879:I 0.000305276
13 *17:27 *880:I 0.000578516
14 *17:27 *882:A2 0.00043778
15 *17:27 *882:A3 3.25706e-05
16 *17:27 *883:A1 0.000362773
17 *17:27 *890:A1 4.0991e-05
18 *17:27 *894:A1 0.000248295
19 *17:27 *946:D 0
20 *17:27 *946:CLK 4.45837e-05
21 *17:27 *955:D 0.000619167
22 *17:27 *45:16 1.27785e-05
23 *17:27 *46:12 0.000124794
24 *17:27 *77:16 3.57187e-05
25 *17:27 *82:6 0.00049789
26 *17:27 *84:10 0
27 *17:27 *97:6 0.000433797
28 *17:27 *214:14 7.17427e-05
29 *17:27 *216:12 0.000150744
*RES
1 wb_clk_i *17:27 39.555 
2 *17:27 *265:I 4.5 
3 *17:27 *962:I 5.13 
*END

*D_NET *18 0.00325222
*CONN
*I *955:D I *D gf180mcu_fd_sc_mcu7t5v0__dffq_1
*I *876:ZN O *D gf180mcu_fd_sc_mcu7t5v0__aoi21_1
*CAP
1 *955:D 0.00104077
2 *876:ZN 0.00104077
3 *955:D *820:A1 0
4 *955:D *894:A1 2.75508e-05
5 *955:D *895:A2 0
6 *955:D *948:D 0.000362347
7 *955:D *948:CLK 0
8 *955:D *45:31 0
9 *955:D *47:18 0.000161621
10 *17:27 *955:D 0.000619167
*RES
1 *876:ZN *955:D 27 
*END

*D_NET *19 0.000377684
*CONN
*I *956:D I *D gf180mcu_fd_sc_mcu7t5v0__dffq_1
*I *884:Z O *D gf180mcu_fd_sc_mcu7t5v0__clkbuf_1
*CAP
1 *956:D 0.000115987
2 *884:Z 0.000115987
3 *956:D *55:10 0.000127736
4 *956:D *219:49 1.79733e-05
*RES
1 *884:Z *956:D 10.08 
*END

*D_NET *20 0.000800365
*CONN
*I *957:D I *D gf180mcu_fd_sc_mcu7t5v0__dffq_1
*I *889:ZN O *D gf180mcu_fd_sc_mcu7t5v0__nor2_1
*CAP
1 *957:D 0.000213438
2 *889:ZN 0.000213438
3 *957:D *889:A2 0.00037349
4 *957:D *219:89 0
*RES
1 *889:ZN *957:D 10.8 
*END

*D_NET *21 0.00100483
*CONN
*I *958:D I *D gf180mcu_fd_sc_mcu7t5v0__dffq_1
*I *894:ZN O *D gf180mcu_fd_sc_mcu7t5v0__oai22_1
*CAP
1 *958:D 0.000266063
2 *894:ZN 0.000266063
3 *958:D *889:A2 2.06277e-05
4 *958:D *894:A1 0.000444513
5 *958:D *894:A2 7.55765e-06
*RES
1 *894:ZN *958:D 11.34 
*END

*D_NET *22 0.000963818
*CONN
*I *959:D I *D gf180mcu_fd_sc_mcu7t5v0__dffq_1
*I *897:Z O *D gf180mcu_fd_sc_mcu7t5v0__clkbuf_1
*CAP
1 *959:D 0.000185954
2 *897:Z 0.000185954
3 *959:D *897:I 5.06883e-05
4 *959:D *918:I1 0.000518186
5 *959:D *219:23 2.3037e-05
*RES
1 *897:Z *959:D 11.07 
*END

*D_NET *23 0.000414337
*CONN
*I *924:D I *D gf180mcu_fd_sc_mcu7t5v0__dffq_1
*I *905:Z O *D gf180mcu_fd_sc_mcu7t5v0__clkbuf_1
*CAP
1 *924:D 0.000128762
2 *905:Z 0.000128762
3 *924:D *747:I1 7.84068e-05
4 *924:D *112:26 7.84068e-05
*RES
1 *905:Z *924:D 10.26 
*END

*D_NET *24 0.00082141
*CONN
*I *925:D I *D gf180mcu_fd_sc_mcu7t5v0__dffq_1
*I *910:Z O *D gf180mcu_fd_sc_mcu7t5v0__clkbuf_1
*CAP
1 *925:D 0.000236426
2 *910:Z 0.000236426
3 *925:D *909:I1 9.98558e-05
4 *925:D *910:I 0.000200349
5 *925:D *925:CLK 4.83522e-05
*RES
1 *910:Z *925:D 11.16 
*END

*D_NET *25 0.000461049
*CONN
*I *926:D I *D gf180mcu_fd_sc_mcu7t5v0__dffq_1
*I *914:Z O *D gf180mcu_fd_sc_mcu7t5v0__clkbuf_1
*CAP
1 *926:D 0.000172924
2 *914:Z 0.000172924
3 *926:D *913:I1 0
4 *926:D *914:I 3.98088e-05
5 *926:D *928:CLK 0
6 *926:D *219:69 7.5391e-05
*RES
1 *914:Z *926:D 10.35 
*END

*D_NET *26 0.000307685
*CONN
*I *927:D I *D gf180mcu_fd_sc_mcu7t5v0__dffq_1
*I *917:Z O *D gf180mcu_fd_sc_mcu7t5v0__clkbuf_1
*CAP
1 *927:D 8.99746e-05
2 *917:Z 8.99746e-05
3 *927:D *917:I 0.000127736
4 *927:D *928:CLK 0
*RES
1 *917:Z *927:D 9.81 
*END

*D_NET *27 0.000496293
*CONN
*I *928:D I *D gf180mcu_fd_sc_mcu7t5v0__dffq_1
*I *920:Z O *D gf180mcu_fd_sc_mcu7t5v0__clkbuf_1
*CAP
1 *928:D 0.00023916
2 *920:Z 0.00023916
3 *928:D *928:CLK 1.79733e-05
*RES
1 *920:Z *928:D 10.44 
*END

*D_NET *28 0.000770568
*CONN
*I *929:D I *D gf180mcu_fd_sc_mcu7t5v0__dffq_1
*I *923:Z O *D gf180mcu_fd_sc_mcu7t5v0__clkbuf_1
*CAP
1 *929:D 0.000385284
2 *923:Z 0.000385284
3 *929:D *929:CLK 0
*RES
1 *923:Z *929:D 11.52 
*END

*D_NET *29 0.000994879
*CONN
*I *930:D I *D gf180mcu_fd_sc_mcu7t5v0__dffq_1
*I *749:Z O *D gf180mcu_fd_sc_mcu7t5v0__clkbuf_1
*CAP
1 *930:D 0.000497439
2 *749:Z 0.000497439
3 *930:D *747:I0 0
*RES
1 *749:Z *930:D 21.06 
*END

*D_NET *30 0.000660175
*CONN
*I *931:D I *D gf180mcu_fd_sc_mcu7t5v0__dffq_1
*I *752:ZN O *D gf180mcu_fd_sc_mcu7t5v0__aoi21_1
*CAP
1 *931:D 9.68699e-05
2 *752:ZN 9.68699e-05
3 *931:D *752:A1 0.000293026
4 *931:D *803:A2 0.000155486
5 *931:D *117:26 1.79237e-05
*RES
1 *752:ZN *931:D 10.26 
*END

*D_NET *31 0.000627502
*CONN
*I *932:D I *D gf180mcu_fd_sc_mcu7t5v0__dffq_1
*I *757:ZN O *D gf180mcu_fd_sc_mcu7t5v0__nor2_1
*CAP
1 *932:D 0.000282604
2 *757:ZN 0.000282604
3 *932:D *757:A2 3.57187e-05
4 *932:D *760:A1 2.6575e-05
5 *932:D *930:CLK 0
*RES
1 *757:ZN *932:D 19.98 
*END

*D_NET *32 0.00094751
*CONN
*I *933:D I *D gf180mcu_fd_sc_mcu7t5v0__dffq_1
*I *760:ZN O *D gf180mcu_fd_sc_mcu7t5v0__nor2_1
*CAP
1 *933:D 0.000390803
2 *760:ZN 0.000390803
3 *933:D *760:A1 9.84908e-05
4 *933:D *762:A2 0
5 *933:D *933:CLK 7.96333e-06
6 *933:D *140:10 6.40664e-06
7 *933:D *140:12 5.03884e-05
8 *933:D *195:8 2.65444e-06
9 *933:D *195:12 0
*RES
1 *760:ZN *933:D 20.7 
*END

*D_NET *33 0.00174572
*CONN
*I *934:D I *D gf180mcu_fd_sc_mcu7t5v0__dffq_1
*I *764:ZN O *D gf180mcu_fd_sc_mcu7t5v0__nor3_1
*CAP