*SPEF "ieee 1481-1999"
*DESIGN "hellorld"
*DATE "12:14:08 Thursday July 31, 2025"
*VENDOR "The OpenROAD Project"
*PROGRAM "OpenROAD"
*VERSION "b16bda7e82721d10566ff7e2b68f1ff0be9f9e38"
*DESIGN_FLOW "NAME_SCOPE LOCAL" "PIN_CAP NONE"
*DIVIDER /
*DELIMITER :
*BUS_DELIMITER []
*T_UNIT 1 NS
*C_UNIT 1 PF
*R_UNIT 1 OHM
*L_UNIT 1 HENRY

*NAME_MAP
*1 custom_settings[0]
*2 custom_settings[10]
*3 custom_settings[11]
*4 custom_settings[1]
*5 custom_settings[2]
*6 custom_settings[3]
*7 custom_settings[4]
*8 custom_settings[5]
*9 custom_settings[6]
*10 custom_settings[7]
*11 custom_settings[8]
*12 custom_settings[9]
*13 io_out
*14 rst_n
*17 wb_clk_i
*18 _000_
*19 _001_
*20 _002_
*21 _003_
*22 _004_
*23 _005_
*24 _006_
*25 _007_
*26 _008_
*27 _009_
*28 _010_
*29 _011_
*30 _012_
*31 _013_
*32 _014_
*33 _015_
*34 _016_
*35 _017_
*36 _018_
*37 _019_
*38 _020_
*39 _021_
*40 _022_
*41 _023_
*42 _024_
*43 _025_
*44 _026_
*45 _027_
*46 _028_
*47 _029_
*48 _030_
*49 _031_
*50 _032_
*51 _033_
*52 _034_
*53 _035_
*54 _036_
*55 _037_
*56 _038_
*57 _039_
*58 _040_
*59 _041_
*60 _042_
*61 _043_
*62 _044_
*63 _045_
*64 _046_
*65 _047_
*66 _048_
*67 _049_
*68 _050_
*69 _051_
*70 _052_
*71 _053_
*72 _054_
*73 _055_
*74 _056_
*75 _057_
*76 _058_
*77 _059_
*78 _060_
*79 _061_
*80 _062_
*81 _063_
*82 _064_
*83 _065_
*84 _066_
*85 _067_
*86 _068_
*87 _069_
*88 _070_
*89 _071_
*90 _072_
*91 _073_
*92 _074_
*93 _075_
*94 _076_
*95 _077_
*96 _078_
*97 _079_
*98 _080_
*99 _081_
*100 _082_
*101 _083_
*102 _084_
*103 _085_
*104 _086_
*105 _087_
*106 _088_
*107 _089_
*108 _090_
*109 _091_
*110 _092_
*111 _093_
*112 _094_
*113 _095_
*114 _096_
*115 _097_
*116 _098_
*117 _099_
*118 _100_
*119 _101_
*120 _102_
*121 _103_
*122 _104_
*123 _105_
*124 _106_
*125 _107_
*126 _108_
*127 _109_
*128 _110_
*129 _111_
*130 _112_
*131 _113_
*132 _114_
*133 _115_
*134 _116_
*135 _117_
*136 _118_
*137 _119_
*138 _120_
*139 _121_
*140 _122_
*141 _123_
*142 _124_
*143 _125_
*144 _126_
*145 _127_
*146 _128_
*147 _129_
*148 _130_
*149 _131_
*150 _132_
*151 _133_
*152 _134_
*153 _135_
*154 _136_
*155 _137_
*156 _138_
*157 _139_
*158 _140_
*159 _141_
*160 _142_
*161 _143_
*162 _144_
*163 _145_
*164 _146_
*165 _147_
*166 _148_
*167 _149_
*168 _150_
*169 _151_
*170 _152_
*171 _153_
*172 _154_
*173 _155_
*174 _156_
*175 _157_
*176 _158_
*177 _159_
*178 _160_
*179 _161_
*180 _162_
*181 _163_
*182 _164_
*183 _165_
*184 _166_
*185 _167_
*186 _168_
*187 _169_
*188 _170_
*189 _171_
*190 _172_
*191 _173_
*192 _174_
*193 _175_
*194 _176_
*195 _177_
*196 _178_
*197 _179_
*198 _180_
*199 _181_
*200 _182_
*201 _183_
*202 _184_
*203 _185_
*204 _186_
*205 _187_
*206 _188_
*207 _189_
*208 _190_
*209 _191_
*210 _192_
*211 _193_
*212 _194_
*213 _195_
*214 _196_
*215 baud_delay\[0\]
*216 baud_delay\[10\]
*217 baud_delay\[11\]
*218 baud_delay\[1\]
*219 baud_delay\[2\]
*220 baud_delay\[3\]
*221 baud_delay\[4\]
*222 baud_delay\[5\]
*223 baud_delay\[6\]
*224 baud_delay\[7\]
*225 baud_delay\[8\]
*226 baud_delay\[9\]
*227 char_at\[0\]
*228 char_at\[1\]
*229 char_at\[2\]
*230 char_at\[3\]
*231 char_at\[4\]
*232 char_at\[5\]
*233 char_at\[6\]
*234 char_pointer\[0\]
*235 char_pointer\[1\]
*236 char_pointer\[2\]
*237 char_pointer\[3\]
*238 clknet_0_wb_clk_i
*239 clknet_2_0__leaf_wb_clk_i
*240 clknet_2_1__leaf_wb_clk_i
*241 clknet_2_2__leaf_wb_clk_i
*242 clknet_2_3__leaf_wb_clk_i
*243 frame_counter\[0\]
*244 frame_counter\[1\]
*245 frame_counter\[2\]
*246 frame_counter\[3\]
*247 net1
*248 net10
*249 net11
*250 net12
*251 net13
*252 net14
*253 net2
*254 net3
*255 net4
*256 net5
*257 net6
*258 net7
*259 net8
*260 net9
*261 uart_frame\[0\]
*262 uart_frame\[1\]
*263 uart_frame\[2\]
*264 uart_frame\[3\]
*265 uart_frame\[4\]
*266 uart_frame\[5\]
*267 uart_frame\[6\]
*268 uart_frame\[7\]
*269 uart_frame\[8\]
*270 uart_frame\[9\]
*271 ANTENNA__204__A
*272 ANTENNA__217__A
*273 ANTENNA__251__D
*274 ANTENNA__401__CLK
*275 ANTENNA__415__CLK
*276 ANTENNA__416__CLK
*277 ANTENNA__417__CLK
*278 ANTENNA__418__CLK
*279 ANTENNA__421__CLK
*280 ANTENNA__423__CLK
*281 ANTENNA__430__CLK
*282 ANTENNA_clkbuf_0_wb_clk_i_A
*283 ANTENNA_clkload1_A
*284 ANTENNA_input10_A
*285 ANTENNA_input11_A
*286 ANTENNA_input12_A
*287 ANTENNA_input13_A
*288 ANTENNA_input1_A
*289 ANTENNA_input2_A
*290 ANTENNA_input3_A
*291 ANTENNA_input4_A
*292 ANTENNA_input5_A
*293 ANTENNA_input6_A
*294 ANTENNA_input7_A
*295 ANTENNA_input8_A
*296 ANTENNA_input9_A
*297 FILLER_0_0_104
*298 FILLER_0_0_120
*299 FILLER_0_0_138
*300 FILLER_0_0_154
*301 FILLER_0_0_172
*302 FILLER_0_0_176
*303 FILLER_0_0_18
*304 FILLER_0_0_2
*305 FILLER_0_0_200
*306 FILLER_0_0_36
*307 FILLER_0_0_52
*308 FILLER_0_0_70
*309 FILLER_0_0_86
*310 FILLER_0_10_107
*311 FILLER_0_10_115
*312 FILLER_0_10_156
*313 FILLER_0_10_166
*314 FILLER_0_10_174
*315 FILLER_0_10_18
*316 FILLER_0_10_2
*317 FILLER_0_10_20
*318 FILLER_0_10_202
*319 FILLER_0_10_47
*320 FILLER_0_10_51
*321 FILLER_0_10_60
*322 FILLER_0_10_68
*323 FILLER_0_11_122
*324 FILLER_0_11_126
*325 FILLER_0_11_133
*326 FILLER_0_11_137
*327 FILLER_0_11_139
*328 FILLER_0_11_142
*329 FILLER_0_11_150
*330 FILLER_0_11_18
*331 FILLER_0_11_2
*332 FILLER_0_11_205
*333 FILLER_0_11_43
*334 FILLER_0_11_67
*335 FILLER_0_11_69
*336 FILLER_0_12_107
*337 FILLER_0_12_150
*338 FILLER_0_12_154
*339 FILLER_0_12_162
*340 FILLER_0_12_170
*341 FILLER_0_12_174
*342 FILLER_0_12_177
*343 FILLER_0_12_199
*344 FILLER_0_12_29
*345 FILLER_0_12_33
*346 FILLER_0_12_66
*347 FILLER_0_12_97
*348 FILLER_0_13_124
*349 FILLER_0_13_14
*350 FILLER_0_13_142
*351 FILLER_0_13_184
*352 FILLER_0_13_196
*353 FILLER_0_13_2
*354 FILLER_0_13_22
*355 FILLER_0_13_32
*356 FILLER_0_13_40
*357 FILLER_0_13_44
*358 FILLER_0_13_67
*359 FILLER_0_13_69
*360 FILLER_0_13_72
*361 FILLER_0_13_80
*362 FILLER_0_13_84
*363 FILLER_0_13_87
*364 FILLER_0_14_119
*365 FILLER_0_14_154
*366 FILLER_0_14_162
*367 FILLER_0_14_166
*368 FILLER_0_14_188
*369 FILLER_0_14_29
*370 FILLER_0_14_34
*371 FILLER_0_14_37
*372 FILLER_0_14_41
*373 FILLER_0_14_82
*374 FILLER_0_14_98
*375 FILLER_0_15_101
*376 FILLER_0_15_109
*377 FILLER_0_15_113
*378 FILLER_0_15_132
*379 FILLER_0_15_18
*380 FILLER_0_15_183
*381 FILLER_0_15_2
*382 FILLER_0_15_205
*383 FILLER_0_15_46
*384 FILLER_0_15_68
*385 FILLER_0_15_88
*386 FILLER_0_15_92
*387 FILLER_0_15_94
*388 FILLER_0_16_10
*389 FILLER_0_16_102
*390 FILLER_0_16_104
*391 FILLER_0_16_107
*392 FILLER_0_16_115
*393 FILLER_0_16_120
*394 FILLER_0_16_128
*395 FILLER_0_16_132
*396 FILLER_0_16_177
*397 FILLER_0_16_185
*398 FILLER_0_16_2
*399 FILLER_0_16_201
*400 FILLER_0_16_203
*401 FILLER_0_16_37
*402 FILLER_0_16_41
*403 FILLER_0_16_62
*404 FILLER_0_16_69
*405 FILLER_0_16_77
*406 FILLER_0_16_85
*407 FILLER_0_16_87
*408 FILLER_0_17_10
*409 FILLER_0_17_102
*410 FILLER_0_17_110
*411 FILLER_0_17_114
*412 FILLER_0_17_116
*413 FILLER_0_17_12
*414 FILLER_0_17_128
*415 FILLER_0_17_136
*416 FILLER_0_17_142
*417 FILLER_0_17_146
*418 FILLER_0_17_154
*419 FILLER_0_17_158
*420 FILLER_0_17_177
*421 FILLER_0_17_189
*422 FILLER_0_17_191
*423 FILLER_0_17_2
*424 FILLER_0_17_203
*425 FILLER_0_17_205
*426 FILLER_0_17_34
*427 FILLER_0_17_38
*428 FILLER_0_17_56
*429 FILLER_0_17_86
*430 FILLER_0_17_90
*431 FILLER_0_18_102
*432 FILLER_0_18_104
*433 FILLER_0_18_113
*434 FILLER_0_18_115
*435 FILLER_0_18_170
*436 FILLER_0_18_174
*437 FILLER_0_18_177
*438 FILLER_0_18_18
*439 FILLER_0_18_181
*440 FILLER_0_18_183
*441 FILLER_0_18_198
*442 FILLER_0_18_2
*443 FILLER_0_18_20
*444 FILLER_0_18_73
*445 FILLER_0_18_81
*446 FILLER_0_18_88
*447 FILLER_0_19_104
*448 FILLER_0_19_106
*449 FILLER_0_19_113
*450 FILLER_0_19_121
*451 FILLER_0_19_129
*452 FILLER_0_19_137
*453 FILLER_0_19_139
*454 FILLER_0_19_142
*455 FILLER_0_19_144
*456 FILLER_0_19_151
*457 FILLER_0_19_159
*458 FILLER_0_19_163
*459 FILLER_0_19_176
*460 FILLER_0_19_36
*461 FILLER_0_19_38
*462 FILLER_0_19_59
*463 FILLER_0_19_67
*464 FILLER_0_19_69
*465 FILLER_0_19_72
*466 FILLER_0_19_80
*467 FILLER_0_19_84
*468 FILLER_0_19_96
*469 FILLER_0_1_104
*470 FILLER_0_1_120
*471 FILLER_0_1_136
*472 FILLER_0_1_142
*473 FILLER_0_1_150
*474 FILLER_0_1_18
*475 FILLER_0_1_2
*476 FILLER_0_1_205
*477 FILLER_0_1_34
*478 FILLER_0_1_50
*479 FILLER_0_1_66
*480 FILLER_0_1_72
*481 FILLER_0_1_88
*482 FILLER_0_20_103
*483 FILLER_0_20_134
*484 FILLER_0_20_165
*485 FILLER_0_20_167
*486 FILLER_0_20_184
*487 FILLER_0_20_188
*488 FILLER_0_20_2
*489 FILLER_0_20_205
*490 FILLER_0_20_33
*491 FILLER_0_20_41
*492 FILLER_0_20_45
*493 FILLER_0_20_53
*494 FILLER_0_20_63
*495 FILLER_0_20_92
*496 FILLER_0_21_111
*497 FILLER_0_21_119
*498 FILLER_0_21_131
*499 FILLER_0_21_139
*500 FILLER_0_21_142
*501 FILLER_0_21_146
*502 FILLER_0_21_153
*503 FILLER_0_21_157
*504 FILLER_0_21_18
*505 FILLER_0_21_184
*506 FILLER_0_21_2
*507 FILLER_0_21_205
*508 FILLER_0_21_26
*509 FILLER_0_21_28
*510 FILLER_0_21_35
*511 FILLER_0_21_37
*512 FILLER_0_21_44
*513 FILLER_0_21_52
*514 FILLER_0_21_56
*515 FILLER_0_21_58
*516 FILLER_0_21_72
*517 FILLER_0_21_95
*518 FILLER_0_22_107
*519 FILLER_0_22_111
*520 FILLER_0_22_150
*521 FILLER_0_22_154
*522 FILLER_0_22_173
*523 FILLER_0_22_18
*524 FILLER_0_22_184
*525 FILLER_0_22_199
*526 FILLER_0_22_2
*527 FILLER_0_22_34
*528 FILLER_0_22_64
*529 FILLER_0_22_68
*530 FILLER_0_22_87
*531 FILLER_0_23_133
*532 FILLER_0_23_137
*533 FILLER_0_23_139
*534 FILLER_0_23_169
*535 FILLER_0_23_173
*536 FILLER_0_23_18
*537 FILLER_0_23_2
*538 FILLER_0_23_201
*539 FILLER_0_23_203
*540 FILLER_0_23_26
*541 FILLER_0_23_67
*542 FILLER_0_23_69
*543 FILLER_0_23_86
*544 FILLER_0_24_101
*545 FILLER_0_24_110
*546 FILLER_0_24_114
*547 FILLER_0_24_130
*548 FILLER_0_24_134
*549 FILLER_0_24_138
*550 FILLER_0_24_154
*551 FILLER_0_24_18
*552 FILLER_0_24_2
*553 FILLER_0_24_36
*554 FILLER_0_24_44
*555 FILLER_0_24_62
*556 FILLER_0_24_66
*557 FILLER_0_24_70
*558 FILLER_0_24_86
*559 FILLER_0_24_88
*560 FILLER_0_24_99
*561 FILLER_0_2_102
*562 FILLER_0_2_104
*563 FILLER_0_2_107
*564 FILLER_0_2_123
*565 FILLER_0_2_139
*566 FILLER_0_2_155
*567 FILLER_0_2_172
*568 FILLER_0_2_174
*569 FILLER_0_2_177
*570 FILLER_0_2_18
*571 FILLER_0_2_2
*572 FILLER_0_2_34
*573 FILLER_0_2_37
*574 FILLER_0_2_53
*575 FILLER_0_2_69
*576 FILLER_0_2_73
*577 FILLER_0_3_103
*578 FILLER_0_3_123
*579 FILLER_0_3_139
*580 FILLER_0_3_142
*581 FILLER_0_3_150
*582 FILLER_0_3_18
*583 FILLER_0_3_199
*584 FILLER_0_3_2
*585 FILLER_0_3_34
*586 FILLER_0_3_50
*587 FILLER_0_3_66
*588 FILLER_0_3_72
*589 FILLER_0_3_80
*590 FILLER_0_3_82
*591 FILLER_0_3_89
*592 FILLER_0_4_103
*593 FILLER_0_4_107
*594 FILLER_0_4_109
*595 FILLER_0_4_177
*596 FILLER_0_4_179
*597 FILLER_0_4_18
*598 FILLER_0_4_196
*599 FILLER_0_4_2
*600 FILLER_0_4_34
*601 FILLER_0_4_37
*602 FILLER_0_4_53
*603 FILLER_0_4_82
*604 FILLER_0_4_90
*605 FILLER_0_5_106
*606 FILLER_0_5_119
*607 FILLER_0_5_127
*608 FILLER_0_5_135
*609 FILLER_0_5_139
*610 FILLER_0_5_142
*611 FILLER_0_5_18
*612 FILLER_0_5_198
*613 FILLER_0_5_2
*614 FILLER_0_5_67
*615 FILLER_0_5_69
*616 FILLER_0_5_72
*617 FILLER_0_5_80
*618 FILLER_0_5_84
*619 FILLER_0_5_98
*620 FILLER_0_6_103
*621 FILLER_0_6_107
*622 FILLER_0_6_111
*623 FILLER_0_6_113
*624 FILLER_0_6_153
*625 FILLER_0_6_161
*626 FILLER_0_6_169
*627 FILLER_0_6_173
*628 FILLER_0_6_177
*629 FILLER_0_6_18
*630 FILLER_0_6_181
*631 FILLER_0_6_183
*632 FILLER_0_6_191
*633 FILLER_0_6_2
*634 FILLER_0_6_34
*635 FILLER_0_7_105
*636 FILLER_0_7_107
*637 FILLER_0_7_120
*638 FILLER_0_7_128
*639 FILLER_0_7_132
*640 FILLER_0_7_139
*641 FILLER_0_7_142
*642 FILLER_0_7_160
*643 FILLER_0_7_176
*644 FILLER_0_7_18
*645 FILLER_0_7_184
*646 FILLER_0_7_188
*647 FILLER_0_7_2
*648 FILLER_0_7_26
*649 FILLER_0_7_30
*650 FILLER_0_7_59
*651 FILLER_0_7_67
*652 FILLER_0_7_69
*653 FILLER_0_7_85
*654 FILLER_0_8_100
*655 FILLER_0_8_104
*656 FILLER_0_8_131
*657 FILLER_0_8_166
*658 FILLER_0_8_174
*659 FILLER_0_8_18
*660 FILLER_0_8_2
*661 FILLER_0_8_204
*662 FILLER_0_8_34
*663 FILLER_0_8_37
*664 FILLER_0_8_45
*665 FILLER_0_8_85
*666 FILLER_0_8_93
*667 FILLER_0_9_10
*668 FILLER_0_9_101
*669 FILLER_0_9_105
*670 FILLER_0_9_119
*671 FILLER_0_9_127
*672 FILLER_0_9_129
*673 FILLER_0_9_136
*674 FILLER_0_9_14
*675 FILLER_0_9_167
*676 FILLER_0_9_175
*677 FILLER_0_9_183
*678 FILLER_0_9_185
*679 FILLER_0_9_199
*680 FILLER_0_9_2
*681 FILLER_0_9_50
*682 FILLER_0_9_69
*683 FILLER_0_9_72
*684 PHY_EDGE_ROW_0_Left_25
*685 PHY_EDGE_ROW_0_Right_0
*686 PHY_EDGE_ROW_10_Left_35
*687 PHY_EDGE_ROW_10_Right_10
*688 PHY_EDGE_ROW_11_Left_36
*689 PHY_EDGE_ROW_11_Right_11
*690 PHY_EDGE_ROW_12_Left_37
*691 PHY_EDGE_ROW_12_Right_12
*692 PHY_EDGE_ROW_13_Left_38
*693 PHY_EDGE_ROW_13_Right_13
*694 PHY_EDGE_ROW_14_Left_39
*695 PHY_EDGE_ROW_14_Right_14
*696 PHY_EDGE_ROW_15_Left_40
*697 PHY_EDGE_ROW_15_Right_15
*698 PHY_EDGE_ROW_16_Left_41
*699 PHY_EDGE_ROW_16_Right_16
*700 PHY_EDGE_ROW_17_Left_42
*701 PHY_EDGE_ROW_17_Right_17
*702 PHY_EDGE_ROW_18_Left_43
*703 PHY_EDGE_ROW_18_Right_18
*704 PHY_EDGE_ROW_19_Left_44
*705 PHY_EDGE_ROW_19_Right_19
*706 PHY_EDGE_ROW_1_Left_26
*707 PHY_EDGE_ROW_1_Right_1
*708 PHY_EDGE_ROW_20_Left_45
*709 PHY_EDGE_ROW_20_Right_20
*710 PHY_EDGE_ROW_21_Left_46
*711 PHY_EDGE_ROW_21_Right_21
*712 PHY_EDGE_ROW_22_Left_47
*713 PHY_EDGE_ROW_22_Right_22
*714 PHY_EDGE_ROW_23_Left_48
*715 PHY_EDGE_ROW_23_Right_23
*716 PHY_EDGE_ROW_24_Left_49
*717 PHY_EDGE_ROW_24_Right_24
*718 PHY_EDGE_ROW_2_Left_27
*719 PHY_EDGE_ROW_2_Right_2
*720 PHY_EDGE_ROW_3_Left_28
*721 PHY_EDGE_ROW_3_Right_3
*722 PHY_EDGE_ROW_4_Left_29
*723 PHY_EDGE_ROW_4_Right_4
*724 PHY_EDGE_ROW_5_Left_30
*725 PHY_EDGE_ROW_5_Right_5
*726 PHY_EDGE_ROW_6_Left_31
*727 PHY_EDGE_ROW_6_Right_6
*728 PHY_EDGE_ROW_7_Left_32
*729 PHY_EDGE_ROW_7_Right_7
*730 PHY_EDGE_ROW_8_Left_33
*731 PHY_EDGE_ROW_8_Right_8
*732 PHY_EDGE_ROW_9_Left_34
*733 PHY_EDGE_ROW_9_Right_9
*734 TAP_TAPCELL_ROW_0_50
*735 TAP_TAPCELL_ROW_0_51
*736 TAP_TAPCELL_ROW_0_52
*737 TAP_TAPCELL_ROW_0_53
*738 TAP_TAPCELL_ROW_0_54
*739 TAP_TAPCELL_ROW_0_55
*740 TAP_TAPCELL_ROW_10_78
*741 TAP_TAPCELL_ROW_10_79
*742 TAP_TAPCELL_ROW_10_80
*743 TAP_TAPCELL_ROW_11_81
*744 TAP_TAPCELL_ROW_11_82
*745 TAP_TAPCELL_ROW_12_83
*746 TAP_TAPCELL_ROW_12_84
*747 TAP_TAPCELL_ROW_12_85
*748 TAP_TAPCELL_ROW_13_86
*749 TAP_TAPCELL_ROW_13_87
*750 TAP_TAPCELL_ROW_14_88
*751 TAP_TAPCELL_ROW_14_89
*752 TAP_TAPCELL_ROW_14_90
*753 TAP_TAPCELL_ROW_15_91
*754 TAP_TAPCELL_ROW_15_92
*755 TAP_TAPCELL_ROW_16_93
*756 TAP_TAPCELL_ROW_16_94
*757 TAP_TAPCELL_ROW_16_95
*758 TAP_TAPCELL_ROW_17_96
*759 TAP_TAPCELL_ROW_17_97
*760 TAP_TAPCELL_ROW_18_100
*761 TAP_TAPCELL_ROW_18_98
*762 TAP_TAPCELL_ROW_18_99
*763 TAP_TAPCELL_ROW_19_101
*764 TAP_TAPCELL_ROW_19_102
*765 TAP_TAPCELL_ROW_1_56
*766 TAP_TAPCELL_ROW_1_57
*767 TAP_TAPCELL_ROW_20_103
*768 TAP_TAPCELL_ROW_20_104
*769 TAP_TAPCELL_ROW_20_105
*770 TAP_TAPCELL_ROW_21_106
*771 TAP_TAPCELL_ROW_21_107
*772 TAP_TAPCELL_ROW_22_108
*773 TAP_TAPCELL_ROW_22_109
*774 TAP_TAPCELL_ROW_22_110
*775 TAP_TAPCELL_ROW_23_111
*776 TAP_TAPCELL_ROW_23_112
*777 TAP_TAPCELL_ROW_24_113
*778 TAP_TAPCELL_ROW_24_114
*779 TAP_TAPCELL_ROW_24_115
*780 TAP_TAPCELL_ROW_24_116
*781 TAP_TAPCELL_ROW_24_117
*782 TAP_TAPCELL_ROW_24_118
*783 TAP_TAPCELL_ROW_2_58
*784 TAP_TAPCELL_ROW_2_59
*785 TAP_TAPCELL_ROW_2_60
*786 TAP_TAPCELL_ROW_3_61
*787 TAP_TAPCELL_ROW_3_62
*788 TAP_TAPCELL_ROW_4_63
*789 TAP_TAPCELL_ROW_4_64
*790 TAP_TAPCELL_ROW_4_65
*791 TAP_TAPCELL_ROW_5_66
*792 TAP_TAPCELL_ROW_5_67
*793 TAP_TAPCELL_ROW_6_68
*794 TAP_TAPCELL_ROW_6_69
*795 TAP_TAPCELL_ROW_6_70
*796 TAP_TAPCELL_ROW_7_71
*797 TAP_TAPCELL_ROW_7_72
*798 TAP_TAPCELL_ROW_8_73
*799 TAP_TAPCELL_ROW_8_74
*800 TAP_TAPCELL_ROW_8_75
*801 TAP_TAPCELL_ROW_9_76
*802 TAP_TAPCELL_ROW_9_77
*803 _197_
*804 _198_
*805 _199_
*806 _200_
*807 _201_
*808 _202_
*809 _203_
*810 _204_
*811 _205_
*812 _206_
*813 _207_
*814 _208_
*815 _209_
*816 _210_
*817 _211_
*818 _212_
*819 _213_
*820 _214_
*821 _215_
*822 _216_
*823 _217_
*824 _218_
*825 _219_
*826 _220_
*827 _221_
*828 _222_
*829 _223_
*830 _224_
*831 _225_
*832 _226_
*833 _227_
*834 _228_
*835 _229_
*836 _230_
*837 _231_
*838 _232_
*839 _233_
*840 _234_
*841 _235_
*842 _236_
*843 _237_
*844 _238_
*845 _239_
*846 _240_
*847 _241_
*848 _242_
*849 _243_
*850 _244_
*851 _245_
*852 _246_
*853 _247_
*854 _248_
*855 _249_
*856 _250_
*857 _251_
*858 _252_
*859 _253_
*860 _254_
*861 _255_
*862 _256_
*863 _257_
*864 _258_
*865 _259_
*866 _260_
*867 _261_
*868 _262_
*869 _263_
*870 _264_
*871 _265_
*872 _266_
*873 _267_
*874 _268_
*875 _269_
*876 _270_
*877 _271_
*878 _272_
*879 _273_
*880 _274_
*881 _275_
*882 _276_
*883 _277_
*884 _278_
*885 _279_
*886 _280_
*887 _281_
*888 _282_
*889 _283_
*890 _284_
*891 _285_
*892 _286_
*893 _287_
*894 _288_
*895 _289_
*896 _290_
*897 _291_
*898 _292_
*899 _293_
*900 _294_
*901 _295_
*902 _296_
*903 _297_
*904 _298_
*905 _299_
*906 _300_
*907 _301_
*908 _302_
*909 _303_
*910 _304_
*911 _305_
*912 _306_
*913 _307_
*914 _308_
*915 _309_
*916 _310_
*917 _311_
*918 _312_
*919 _313_
*920 _314_
*921 _315_
*922 _316_
*923 _317_
*924 _318_
*925 _319_
*926 _320_
*927 _321_
*928 _322_
*929 _323_
*930 _324_
*931 _325_
*932 _326_
*933 _327_
*934 _328_
*935 _329_
*936 _330_
*937 _331_
*938 _332_
*939 _333_
*940 _334_
*941 _335_
*942 _336_
*943 _337_
*944 _338_
*945 _339_
*946 _340_
*947 _341_
*948 _342_
*949 _343_
*950 _344_
*951 _345_
*952 _346_
*953 _347_
*954 _348_
*955 _349_
*956 _350_
*957 _351_
*958 _352_
*959 _353_
*960 _354_
*961 _355_
*962 _356_
*963 _357_
*964 _358_
*965 _359_
*966 _360_
*967 _361_
*968 _362_
*969 _363_
*970 _364_
*971 _365_
*972 _366_
*973 _367_
*974 _368_
*975 _369_
*976 _370_
*977 _371_
*978 _372_
*979 _373_
*980 _374_
*981 _375_
*982 _376_
*983 _377_
*984 _378_
*985 _379_
*986 _380_
*987 _381_
*988 _382_
*989 _383_
*990 _384_
*991 _385_
*992 _386_
*993 _387_
*994 _388_
*995 _389_
*996 _390_
*997 _391_
*998 _392_
*999 _393_
*1000 _394_
*1001 _395_
*1002 _396_
*1003 _397_
*1004 _398_
*1005 _399_
*1006 _400_
*1007 _401_
*1008 _402_
*1009 _403_
*1010 _404_
*1011 _405_
*1012 _406_
*1013 _407_
*1014 _408_
*1015 _409_
*1016 _410_
*1017 _411_
*1018 _412_
*1019 _413_
*1020 _414_
*1021 _415_
*1022 _416_
*1023 _417_
*1024 _418_
*1025 _419_
*1026 _420_
*1027 _421_
*1028 _422_
*1029 _423_
*1030 _424_
*1031 _425_
*1032 _426_
*1033 _427_
*1034 _428_
*1035 _429_
*1036 _430_
*1037 _431_
*1038 clkbuf_0_wb_clk_i
*1039 clkbuf_2_0__f_wb_clk_i
*1040 clkbuf_2_1__f_wb_clk_i
*1041 clkbuf_2_2__f_wb_clk_i
*1042 clkbuf_2_3__f_wb_clk_i
*1043 clkload0
*1044 clkload1
*1045 input1
*1046 input10
*1047 input11
*1048 input12
*1049 input13
*1050 input2
*1051 input3
*1052 input4
*1053 input5
*1054 input6
*1055 input7
*1056 input8
*1057 input9
*1058 output14

*PORTS
custom_settings[0] I
custom_settings[10] I
custom_settings[11] I
custom_settings[1] I
custom_settings[2] I
custom_settings[3] I
custom_settings[4] I
custom_settings[5] I
custom_settings[6] I
custom_settings[7] I
custom_settings[8] I
custom_settings[9] I
io_out O
rst_n I
wb_clk_i I

*D_NET *1 0.00230045
*CONN
*P custom_settings[0] I
*I *1045:A I *D gf180mcu_as_sc_mcu7t3v3__buff_2
*I *288:DIODE I *D gf180mcu_as_sc_mcu7t3v3__diode_2
*CAP
1 custom_settings[0] 0.00106164
2 *1045:A 3.91592e-05
3 *288:DIODE 4.771e-05
4 *1:9 0.00114851
5 *1045:A *912:A 3.42287e-06
*RES
1 custom_settings[0] *1:9 11.758 
2 *1:9 *288:DIODE 4.804 
3 *1:9 *1045:A 4.728 
*END

*D_NET *2 0.00280975
*CONN
*P custom_settings[10] I
*I *1050:A I *D gf180mcu_as_sc_mcu7t3v3__buff_2
*I *289:DIODE I *D gf180mcu_as_sc_mcu7t3v3__diode_2
*CAP
1 custom_settings[10] 0.00107264
2 *1050:A 4.24085e-05
3 *289:DIODE 3.48958e-05
4 *2:9 0.00114995
5 *289:DIODE *1058:A 2.62889e-05
6 *1050:A *856:A 0
7 *2:9 io_out 0.000205999
8 *2:9 *906:A 0.000244714
9 *2:9 *1058:A 3.28611e-05
*RES
1 custom_settings[10] *2:9 7.942 
2 *2:9 *289:DIODE 9.304 
3 *2:9 *1050:A 9.228 
*END

*D_NET *3 0.00354207
*CONN
*P custom_settings[11] I
*I *1051:A I *D gf180mcu_as_sc_mcu7t3v3__buff_2
*I *290:DIODE I *D gf180mcu_as_sc_mcu7t3v3__diode_2
*CAP
1 custom_settings[11] 0.00148448
2 *1051:A 1.77257e-05
3 *290:DIODE 0.000137959
4 *3:21 0.00164016
5 *290:DIODE *907:A 0
6 *290:DIODE *910:A 9.14616e-05
7 *3:21 *906:B 2.36298e-05
8 *3:21 *906:A 0
9 *3:21 *910:A 5.72998e-05
10 *3:21 *217:6 2.73945e-05
11 *3:21 *217:12 6.19579e-05
*RES
1 custom_settings[11] *3:21 31.886 
2 *3:21 *290:DIODE 5.488 
3 *3:21 *1051:A 4.652 
*END

*D_NET *4 0.00558989
*CONN
*P custom_settings[1] I
*I *291:DIODE I *D gf180mcu_as_sc_mcu7t3v3__diode_2
*I *1052:A I *D gf180mcu_as_sc_mcu7t3v3__buff_2
*CAP
1 custom_settings[1] 0.00050535
2 *291:DIODE 0.000679839
3 *1052:A 0
4 *4:9 0.00118519
5 *291:DIODE *819:A 6.78801e-05
6 *291:DIODE *819:C 0.000665988
7 *291:DIODE *819:D 2.25107e-05
8 *291:DIODE *821:B 6.50663e-05
9 *291:DIODE *911:A 9.51167e-05
10 *291:DIODE *912:A 0
11 *291:DIODE *915:D 0.000123094
12 *291:DIODE *916:C 1.18336e-05
13 *291:DIODE *1053:A 0.000170711
14 *291:DIODE *5:7 1.81333e-05
15 *291:DIODE *140:10 6.06975e-05
16 *291:DIODE *145:8 0.000500461
17 *291:DIODE *145:21 0.000286184
18 *4:9 *292:DIODE 0.00108271
19 *4:9 *916:C 2.29986e-05
20 *4:9 *1053:A 2.6126e-05
*RES
1 custom_settings[1] *4:9 8.566 
2 *4:9 *1052:A 4.5 
3 *4:9 *291:DIODE 20.34 
*END

*D_NET *5 0.00312126
*CONN
*P custom_settings[2] I
*I *1053:A I *D gf180mcu_as_sc_mcu7t3v3__buff_2
*I *292:DIODE I *D gf180mcu_as_sc_mcu7t3v3__diode_2
*CAP
1 custom_settings[2] 0.000265851
2 *1053:A 0.000126439
3 *292:DIODE 0.000229751
4 *5:7 0.00062204
5 *292:DIODE *812:A 0.000126186
6 *292:DIODE *911:A 9.88736e-06
7 *292:DIODE *912:B 0.000122747
8 *292:DIODE *912:A 8.18373e-05
9 *292:DIODE *915:B 0
10 *292:DIODE *915:D 5.47892e-05
11 *1053:A *904:A 0
12 *1053:A *911:A 0.000123284
13 *1053:A *915:D 4.10312e-05
14 *1053:A *916:C 0
15 *5:7 *916:C 1.97364e-05
16 *291:DIODE *1053:A 0.000170711
17 *291:DIODE *5:7 1.81333e-05
18 *4:9 *292:DIODE 0.00108271
19 *4:9 *1053:A 2.6126e-05
*RES
1 custom_settings[2] *5:7 5.906 
2 *5:7 *292:DIODE 7.92 
3 *5:7 *1053:A 5.868 
*END

*D_NET *6 0.00145933
*CONN
*P custom_settings[3] I
*I *1054:A I *D gf180mcu_as_sc_mcu7t3v3__buff_2
*I *293:DIODE I *D gf180mcu_as_sc_mcu7t3v3__diode_2
*CAP
1 custom_settings[3] 0.000472663
2 *1054:A 0
3 *293:DIODE 0.000174738
4 *6:13 0.000647401
5 *293:DIODE *819:C 0
6 *293:DIODE *915:D 9.79792e-05
7 *6:13 *904:B 3.14013e-06
8 *6:13 *904:A 2.9378e-06
9 *6:13 *905:D 4.5101e-05
10 *6:13 *915:D 1.53689e-05
*RES
1 custom_settings[3] *6:13 7.35 
2 *6:13 *293:DIODE 5.792 
3 *6:13 *1054:A 4.5 
*END

*D_NET *7 0.00215092
*CONN
*P custom_settings[4] I
*I *1055:A I *D gf180mcu_as_sc_mcu7t3v3__buff_2
*I *294:DIODE I *D gf180mcu_as_sc_mcu7t3v3__diode_2
*CAP
1 custom_settings[4] 0.000415367
2 *1055:A 7.4122e-05
3 *294:DIODE 0.000475683
4 *7:7 0.000965172
5 *294:DIODE *827:B 1.54235e-05
6 *294:DIODE *914:B 2.15787e-05
7 *294:DIODE *1012:D 0
8 *294:DIODE *145:21 0
9 *294:DIODE *221:10 2.11881e-05
10 *1055:A *825:A 0.000114958
11 *1055:A *905:D 0
12 *1055:A *914:A 2.14834e-05
13 *7:7 *221:10 2.59409e-05
*RES
1 custom_settings[4] *7:7 2.394 
2 *7:7 *294:DIODE 11.66 
3 *7:7 *1055:A 9.684 
*END

*D_NET *8 0.00138897
*CONN
*P custom_settings[5] I
*I *1056:A I *D gf180mcu_as_sc_mcu7t3v3__buff_2
*I *295:DIODE I *D gf180mcu_as_sc_mcu7t3v3__diode_2
*CAP
1 custom_settings[5] 0.000294432
2 *1056:A 0.000218045
3 *295:DIODE 0.000107582
4 *8:7 0.000620058
5 *295:DIODE *831:A 9.94773e-06
6 *295:DIODE *831:C 0
7 *295:DIODE *905:D 2.94112e-05
8 *1056:A *831:B 1.6238e-05
9 *1056:A *831:C 0
10 *1056:A *905:D 9.32583e-05
*RES
1 custom_settings[5] *8:7 5.83 
2 *8:7 *295:DIODE 5.184 
3 *8:7 *1056:A 6.096 
*END

*D_NET *9 0.00100364
*CONN
*P custom_settings[6] I
*I *1057:A I *D gf180mcu_as_sc_mcu7t3v3__buff_2
*I *296:DIODE I *D gf180mcu_as_sc_mcu7t3v3__diode_2
*CAP
1 custom_settings[6] 0.000390804
2 *1057:A 5.79871e-05
3 *296:DIODE 4.65024e-05
4 *9:5 0.000495294
5 *296:DIODE *901:A 0
6 *1057:A *905:D 0
7 *1057:A *908:B 1.01183e-05
8 *1057:A *908:A 2.9378e-06
9 *9:5 *901:A 0
*RES
1 custom_settings[6] *9:5 2.014 
2 *9:5 *296:DIODE 9.304 
3 *9:5 *1057:A 9.38 
*END

*D_NET *10 0.00154212
*CONN
*P custom_settings[7] I
*I *1046:A I *D gf180mcu_as_sc_mcu7t3v3__buff_2
*I *284:DIODE I *D gf180mcu_as_sc_mcu7t3v3__diode_2
*CAP
1 custom_settings[7] 0.000270079
2 *1046:A 0.000272315
3 *284:DIODE 0
4 *10:7 0.000542394
5 *1046:A *910:C 0.000424048
6 *1046:A *916:C 3.32809e-05
7 *10:7 *916:C 0
*RES
1 custom_settings[7] *10:7 5.83 
2 *10:7 *284:DIODE 4.5 
3 *10:7 *1046:A 7.008 
*END

*D_NET *11 0.00188731
*CONN
*P custom_settings[8] I
*I *1047:A I *D gf180mcu_as_sc_mcu7t3v3__buff_2
*I *285:DIODE I *D gf180mcu_as_sc_mcu7t3v3__diode_2
*CAP
1 custom_settings[8] 0.000647274
2 *1047:A 3.59727e-05
3 *285:DIODE 0.000124496
4 *11:9 0.000807743
5 *285:DIODE *902:B 0
6 *285:DIODE *902:A 5.63729e-05
7 *285:DIODE *909:B 0
8 *285:DIODE *225:19 0
9 *1047:A *910:A 3.08902e-05
10 *1047:A *910:C 0
11 *1047:A *916:B 1.91917e-06
12 *11:9 *902:B 3.30966e-05
13 *11:9 *902:A 2.44046e-05
14 *11:9 *910:D 0.00010322
15 *11:9 *916:B 2.19195e-05
16 *11:9 *916:C 0
17 *11:9 *64:10 0
*RES
1 custom_settings[8] *11:9 8.414 
2 *11:9 *285:DIODE 14.564 
3 *11:9 *1047:A 4.728 
*END

*D_NET *12 0.00118819
*CONN
*P custom_settings[9] I
*I *286:DIODE I *D gf180mcu_as_sc_mcu7t3v3__diode_2
*I *1048:A I *D gf180mcu_as_sc_mcu7t3v3__buff_2
*CAP
1 custom_settings[9] 0.00037376
2 *286:DIODE 0.000178436
3 *1048:A 0
4 *12:13 0.000552197
5 *286:DIODE *909:A 0
6 *286:DIODE *217:6 0
7 *12:13 *909:A 8.37986e-05
8 *12:13 *217:6 0
*RES
1 custom_settings[9] *12:13 7.046 
2 *12:13 *1048:A 4.5 
3 *12:13 *286:DIODE 5.64 
*END

*D_NET *13 0.00177479
*CONN
*P io_out O
*I *1058:Y O *D gf180mcu_as_sc_mcu7t3v3__clkbuff_12
*CAP
1 io_out 0.000784396
2 *1058:Y 0.000784396
3 *2:9 io_out 0.000205999
*RES
1 *1058:Y io_out 18.934 
*END

*D_NET *14 0.00179983
*CONN
*P rst_n I
*I *287:DIODE I *D gf180mcu_as_sc_mcu7t3v3__diode_2
*I *1049:A I *D gf180mcu_as_sc_mcu7t3v3__buff_2
*CAP
1 rst_n 0.000822526
2 *287:DIODE 7.739e-05
3 *1049:A 0
4 *14:9 0.000899916
5 *287:DIODE *1030:D 0
6 *14:9 *893:C 0
7 *14:9 *894:A 0
8 *14:9 *1030:D 0
*RES
1 rst_n *14:9 9.63 
2 *14:9 *1049:A 9 
3 *14:9 *287:DIODE 9.608 
*END

*D_NET *17 0.0140563
*CONN
*P wb_clk_i I
*I *1038:A I *D gf180mcu_as_sc_mcu7t3v3__clkbuff_12
*I *282:DIODE I *D gf180mcu_as_sc_mcu7t3v3__diode_2
*CAP
1 wb_clk_i 0.00246632
2 *1038:A 0.000352329
3 *282:DIODE 0
4 *17:21 0.00281865
5 *1038:A *803:B 0.000307974
6 *1038:A *1039:A 0
7 *1038:A *1040:A 4.3758e-05
8 *1038:A *115:12 0.000201941
9 *1038:A *240:183 0.000276717
10 *17:21 *923:A 1.02823e-05
11 *17:21 *931:A 0.00032464
12 *17:21 *936:C 5.36318e-05
13 *17:21 *937:B 2.33365e-05
14 *17:21 *937:D 0.000106886
15 *17:21 *938:C 2.6114e-05
16 *17:21 *942:C 5.4634e-05
17 *17:21 *943:B 9.17202e-06
18 *17:21 *946:D 0.000677194
19 *17:21 *959:A 0.000502409
20 *17:21 *1022:D 9.45638e-06
21 *17:21 *1029:CLK 0.000344204
22 *17:21 *67:14 0
23 *17:21 *71:10 0.000120555
24 *17:21 *73:14 0.000112101
25 *17:21 *81:20 0.000160532
26 *17:21 *82:27 0.000122986
27 *17:21 *89:8 2.90557e-05
28 *17:21 *90:14 0.000270435
29 *17:21 *98:12 0.000505673
30 *17:21 *103:10 8.55242e-05
31 *17:21 *234:12 6.92347e-05
32 *17:21 *236:20 0.0004964
33 *17:21 *236:31 3.16664e-05
34 *17:21 *240:12 0.000916273
35 *17:21 *240:16 0.000179137
36 *17:21 *240:61 0.000640738
37 *17:21 *240:161 0.000782382
38 *17:21 *240:183 0.000923991
*RES
1 wb_clk_i *17:21 30.226 
2 *17:21 *282:DIODE 9 
3 *17:21 *1038:A 12.2314 
*END

*D_NET *18 0.000690337
*CONN
*I *1031:D I *D gf180mcu_as_sc_mcu7t3v3__dfxtp_2
*I *957:Y O *D gf180mcu_as_sc_mcu7t3v3__buff_2
*CAP
1 *1031:D 0.00033044
2 *957:Y 0.00033044
3 *1031:D *803:S 2.94576e-05
4 *1031:D *956:B 0
5 *1031:D *1036:D 0
*RES
1 *957:Y *1031:D 19.748 
*END

*D_NET *19 0.00143735
*CONN
*I *1032:D I *D gf180mcu_as_sc_mcu7t3v3__dfxtp_2
*I *962:Y O *D gf180mcu_as_sc_mcu7t3v3__nand2_2
*CAP
1 *1032:D 0.000321533
2 *962:Y 0.000321533
3 *1032:D *962:B 0.000468482
4 *1032:D *972:A 0.000170939
5 *1032:D *1031:CLK 1.02686e-05
6 *1032:D *1039:A 7.90478e-05
7 *1032:D *239:6 3.3308e-05
8 *1032:D *239:24 3.2235e-05
*RES
1 *962:Y *1032:D 12.116 
*END

*D_NET *20 0.0003798
*CONN
*I *1033:D I *D gf180mcu_as_sc_mcu7t3v3__dfxtp_2
*I *968:Y O *D gf180mcu_as_sc_mcu7t3v3__buff_2
*CAP
1 *1033:D 7.03507e-05
2 *968:Y 7.03507e-05
3 *1033:D *968:A 0.00011955
4 *1033:D *974:A 0.00011955
*RES
1 *968:Y *1033:D 9.912 
*END

*D_NET *21 0.00274236
*CONN
*I *1034:D I *D gf180mcu_as_sc_mcu7t3v3__dfxtp_2
*I *972:Y O *D gf180mcu_as_sc_mcu7t3v3__buff_2
*CAP
1 *1034:D 0.000323414
2 *972:Y 0.000323414
3 *1034:D *897:A 0.000232337
4 *1034:D *987:B 0.00154418
5 *1034:D *1037:CLK 2.6126e-05
6 *1034:D *239:44 0.000244016
7 *1034:D *239:46 4.88658e-05
*RES
1 *972:Y *1034:D 22.864 
*END

*D_NET *22 0.000540125
*CONN
*I *1035:D I *D gf180mcu_as_sc_mcu7t3v3__dfxtp_2
*I *974:Y O *D gf180mcu_as_sc_mcu7t3v3__buff_2
*CAP
1 *1035:D 0.00024982
2 *974:Y 0.00024982
3 *1035:D *974:A 4.04846e-05
4 *1035:D *1035:CLK 0
*RES
1 *974:Y *1035:D 10.672 
*END

*D_NET *23 0.000906466
*CONN
*I *1000:D I *D gf180mcu_as_sc_mcu7t3v3__dfxtp_2
*I *982:Y O *D gf180mcu_as_sc_mcu7t3v3__buff_2
*CAP
1 *1000:D 0.000422582
2 *982:Y 0.000422582
3 *1000:D *1041:A 6.13012e-05
4 *1000:D *238:44 0
*RES
1 *982:Y *1000:D 20.736 
*END

*D_NET *24 0.00104137
*CONN
*I *1001:D I *D gf180mcu_as_sc_mcu7t3v3__dfxtp_2
*I *985:Y O *D gf180mcu_as_sc_mcu7t3v3__buff_2
*CAP
1 *1001:D 0.000425421
2 *985:Y 0.000425421
3 *1001:D *1041:A 0.000141897
4 *1001:D *241:12 1.91917e-06
5 *1001:D *241:78 3.94655e-05
6 *1001:D *241:82 7.24161e-06
7 *1001:D *264:8 0
*RES
1 *985:Y *1001:D 21.192 
*END

*D_NET *25 0.00119104
*CONN
*I *1002:D I *D gf180mcu_as_sc_mcu7t3v3__dfxtp_2
*I *989:Y O *D gf180mcu_as_sc_mcu7t3v3__buff_2
*CAP
1 *1002:D 0.000436768
2 *989:Y 0.000436768
3 *1002:D *241:12 0.000317503
*RES
1 *989:Y *1002:D 21.344 
*END

*D_NET *26 0.000888595
*CONN
*I *1003:D I *D gf180mcu_as_sc_mcu7t3v3__dfxtp_2
*I *992:Y O *D gf180mcu_as_sc_mcu7t3v3__buff_2
*CAP
1 *1003:D 0.000444298
2 *992:Y 0.000444298
3 *1003:D *241:18 0
*RES
1 *992:Y *1003:D 20.888 
*END

*D_NET *27 0.000923321
*CONN
*I *1004:D I *D gf180mcu_as_sc_mcu7t3v3__dfxtp_2
*I *996:Y O *D gf180mcu_as_sc_mcu7t3v3__buff_2
*CAP
1 *1004:D 0.000461661
2 *996:Y 0.000461661
3 *1004:D *990:A 0
4 *1004:D *995:A 0