*SPEF "ieee 1481-1999"
*DESIGN "tholin_avalonsemi_tbb1143"
*DATE "11:11:11 Fri 11 11, 1111"
*VENDOR "OpenRCX"
*PROGRAM "Parallel Extraction"
*VERSION "1.0"
*DESIGN_FLOW "NAME_SCOPE LOCAL" "PIN_CAP NONE"
*DIVIDER /
*DELIMITER :
*BUS_DELIMITER []
*T_UNIT 1 NS
*C_UNIT 1 PF
*R_UNIT 1 OHM
*L_UNIT 1 HENRY

*NAME_MAP
*1 clk
*2 io_in[0]
*3 io_in[1]
*4 io_in[2]
*5 io_in[3]
*6 io_in[4]
*7 io_in[5]
*8 io_out[0]
*9 io_out[1]
*10 io_out[2]
*11 io_out[3]
*12 io_out[4]
*13 rst_n
*16 CIRCUIT_2223\.CLK
*17 CIRCUIT_2223\.GATES_1\.input1\[0\]
*18 CIRCUIT_2223\.GATES_1\.input1\[1\]
*19 CIRCUIT_2223\.GATES_1\.input1\[2\]
*20 CIRCUIT_2223\.GATES_1\.input1\[3\]
*21 CIRCUIT_2223\.GATES_11\.input2
*22 CIRCUIT_2223\.GATES_11\.result
*23 CIRCUIT_2223\.GATES_2\.input2
*24 CIRCUIT_2223\.GATES_3\.input2
*25 CIRCUIT_2223\.GATES_4\.input1\[0\]
*26 CIRCUIT_2223\.GATES_4\.input1\[1\]
*27 CIRCUIT_2223\.GATES_4\.input1\[2\]
*28 CIRCUIT_2223\.GATES_4\.input1\[3\]
*29 CIRCUIT_2223\.GATES_5\.input2
*30 CIRCUIT_2223\.MEMORY_18\.clock
*31 CIRCUIT_2223\.MEMORY_18\.d
*32 CIRCUIT_2223\.MEMORY_18\.s_currentState
*33 CIRCUIT_2223\.MEMORY_19\.d
*34 CIRCUIT_2223\.MEMORY_19\.s_currentState
*35 CIRCUIT_2223\.MEMORY_20\.d
*36 CIRCUIT_2223\.MEMORY_20\.s_currentState
*37 CIRCUIT_2223\.MEMORY_21\.d
*38 CIRCUIT_2223\.MEMORY_21\.s_currentState
*39 CIRCUIT_2223\.MEMORY_22\.d
*40 CIRCUIT_2223\.MEMORY_22\.s_currentState
*41 CIRCUIT_2223\.MEMORY_23\.s_currentState
*42 CIRCUIT_2223\.MEMORY_24\.d
*43 CIRCUIT_2223\.MEMORY_24\.s_currentState
*44 CIRCUIT_2223\.MEMORY_25\.d
*45 CIRCUIT_2223\.MEMORY_25\.s_currentState
*46 CIRCUIT_2223\.MEMORY_26\.s_currentState
*47 CIRCUIT_2223\.s_logisimNet48
*48 CIRCUIT_2223\.tone_generator_1\.GATES_1\.result
*49 CIRCUIT_2223\.tone_generator_1\.GATES_2\.result
*50 CIRCUIT_2223\.tone_generator_1\.GATES_3\.result
*51 CIRCUIT_2223\.tone_generator_1\.MEMORY_10\.s_currentState
*52 CIRCUIT_2223\.tone_generator_1\.MEMORY_11\.s_currentState
*53 CIRCUIT_2223\.tone_generator_1\.MEMORY_12\.s_currentState
*54 CIRCUIT_2223\.tone_generator_1\.MEMORY_13\.s_currentState
*55 CIRCUIT_2223\.tone_generator_1\.MEMORY_14\.s_currentState
*56 CIRCUIT_2223\.tone_generator_1\.MEMORY_15\.s_currentState
*57 CIRCUIT_2223\.tone_generator_1\.MEMORY_16\.s_currentState
*58 CIRCUIT_2223\.tone_generator_1\.MEMORY_17\.s_currentState
*59 CIRCUIT_2223\.tone_generator_1\.MEMORY_18\.s_currentState
*60 CIRCUIT_2223\.tone_generator_1\.MEMORY_19\.s_currentState
*61 CIRCUIT_2223\.tone_generator_1\.MEMORY_20\.s_currentState
*62 CIRCUIT_2223\.tone_generator_1\.MEMORY_4\.s_currentState
*63 CIRCUIT_2223\.tone_generator_1\.MEMORY_6\.s_currentState
*64 CIRCUIT_2223\.tone_generator_1\.MEMORY_7\.s_currentState
*65 CIRCUIT_2223\.tone_generator_1\.MEMORY_8\.s_currentState
*66 CIRCUIT_2223\.tone_generator_1\.MEMORY_9\.s_currentState
*67 CIRCUIT_2223\.tone_generator_1\.tone_generator_2_1\.GATES_10\.input2
*68 CIRCUIT_2223\.tone_generator_1\.tone_generator_2_1\.GATES_11\.input2
*69 CIRCUIT_2223\.tone_generator_1\.tone_generator_2_1\.GATES_12\.input2
*70 CIRCUIT_2223\.tone_generator_1\.tone_generator_2_1\.GATES_13\.input2
*71 CIRCUIT_2223\.tone_generator_1\.tone_generator_2_1\.GATES_14\.input2
*72 CIRCUIT_2223\.tone_generator_1\.tone_generator_2_1\.GATES_15\.input2
*73 CIRCUIT_2223\.tone_generator_1\.tone_generator_2_1\.GATES_16\.input2
*74 CIRCUIT_2223\.tone_generator_1\.tone_generator_2_1\.GATES_17\.input2
*75 CIRCUIT_2223\.tone_generator_1\.tone_generator_2_1\.GATES_27\.result
*76 CIRCUIT_2223\.tone_generator_1\.tone_generator_2_1\.GATES_7\.input2
*77 CIRCUIT_2223\.tone_generator_1\.tone_generator_2_1\.GATES_8\.input2
*78 CIRCUIT_2223\.tone_generator_1\.tone_generator_2_1\.GATES_9\.input2
*79 CIRCUIT_2223\.tone_generator_1\.tone_generator_2_1\.MEMORY_28\.clock
*80 CIRCUIT_2223\.tone_generator_1\.tone_generator_2_1\.MEMORY_28\.d
*81 CIRCUIT_2223\.tone_generator_1\.tone_generator_2_1\.MEMORY_28\.s_currentState
*82 CIRCUIT_2223\.tone_generator_1\.tone_generator_2_1\.MEMORY_29\.d
*83 CIRCUIT_2223\.tone_generator_1\.tone_generator_2_1\.MEMORY_29\.s_currentState
*84 CIRCUIT_2223\.tone_generator_1\.tone_generator_2_1\.MEMORY_30\.d
*85 CIRCUIT_2223\.tone_generator_1\.tone_generator_2_1\.MEMORY_30\.s_currentState
*86 CIRCUIT_2223\.tone_generator_1\.tone_generator_2_1\.MEMORY_31\.d
*87 CIRCUIT_2223\.tone_generator_1\.tone_generator_2_1\.MEMORY_31\.s_currentState
*88 CIRCUIT_2223\.tone_generator_1\.tone_generator_2_1\.MEMORY_32\.d
*89 CIRCUIT_2223\.tone_generator_1\.tone_generator_2_1\.MEMORY_32\.s_currentState
*90 CIRCUIT_2223\.tone_generator_1\.tone_generator_2_1\.MEMORY_33\.d
*91 CIRCUIT_2223\.tone_generator_1\.tone_generator_2_1\.MEMORY_33\.s_currentState
*92 CIRCUIT_2223\.tone_generator_1\.tone_generator_2_1\.MEMORY_34\.d
*93 CIRCUIT_2223\.tone_generator_1\.tone_generator_2_1\.MEMORY_34\.s_currentState
*94 CIRCUIT_2223\.tone_generator_1\.tone_generator_2_1\.MEMORY_35\.d
*95 CIRCUIT_2223\.tone_generator_1\.tone_generator_2_1\.MEMORY_35\.s_currentState
*96 CIRCUIT_2223\.tone_generator_1\.tone_generator_2_1\.MEMORY_36\.d
*97 CIRCUIT_2223\.tone_generator_1\.tone_generator_2_1\.MEMORY_36\.s_currentState
*98 CIRCUIT_2223\.tone_generator_1\.tone_generator_2_1\.MEMORY_37\.d
*99 CIRCUIT_2223\.tone_generator_1\.tone_generator_2_1\.MEMORY_37\.s_currentState
*100 CIRCUIT_2223\.tone_generator_1\.tone_generator_2_1\.MEMORY_38\.s_currentState
*101 CIRCUIT_2223\.tone_generator_1\.tone_generator_2_1\.MEMORY_39\.d
*102 CIRCUIT_2223\.tone_generator_1\.tone_generator_2_1\.MEMORY_39\.s_currentState
*103 CIRCUIT_2223\.tone_generator_2_1\.GATES_10\.input2
*104 CIRCUIT_2223\.tone_generator_2_1\.GATES_11\.input2
*105 CIRCUIT_2223\.tone_generator_2_1\.GATES_12\.input2
*106 CIRCUIT_2223\.tone_generator_2_1\.GATES_13\.input2
*107 CIRCUIT_2223\.tone_generator_2_1\.GATES_14\.input2
*108 CIRCUIT_2223\.tone_generator_2_1\.GATES_15\.input2
*109 CIRCUIT_2223\.tone_generator_2_1\.GATES_16\.input2
*110 CIRCUIT_2223\.tone_generator_2_1\.GATES_17\.input2
*111 CIRCUIT_2223\.tone_generator_2_1\.GATES_27\.result
*112 CIRCUIT_2223\.tone_generator_2_1\.GATES_7\.input2
*113 CIRCUIT_2223\.tone_generator_2_1\.GATES_8\.input2
*114 CIRCUIT_2223\.tone_generator_2_1\.GATES_9\.input2
*115 CIRCUIT_2223\.tone_generator_2_1\.MEMORY_28\.clock
*116 CIRCUIT_2223\.tone_generator_2_1\.MEMORY_28\.d
*117 CIRCUIT_2223\.tone_generator_2_1\.MEMORY_28\.s_currentState
*118 CIRCUIT_2223\.tone_generator_2_1\.MEMORY_29\.d
*119 CIRCUIT_2223\.tone_generator_2_1\.MEMORY_29\.s_currentState
*120 CIRCUIT_2223\.tone_generator_2_1\.MEMORY_30\.d
*121 CIRCUIT_2223\.tone_generator_2_1\.MEMORY_30\.s_currentState
*122 CIRCUIT_2223\.tone_generator_2_1\.MEMORY_31\.d
*123 CIRCUIT_2223\.tone_generator_2_1\.MEMORY_31\.s_currentState
*124 CIRCUIT_2223\.tone_generator_2_1\.MEMORY_32\.d
*125 CIRCUIT_2223\.tone_generator_2_1\.MEMORY_32\.s_currentState
*126 CIRCUIT_2223\.tone_generator_2_1\.MEMORY_33\.d
*127 CIRCUIT_2223\.tone_generator_2_1\.MEMORY_33\.s_currentState
*128 CIRCUIT_2223\.tone_generator_2_1\.MEMORY_34\.d
*129 CIRCUIT_2223\.tone_generator_2_1\.MEMORY_34\.s_currentState
*130 CIRCUIT_2223\.tone_generator_2_1\.MEMORY_35\.d
*131 CIRCUIT_2223\.tone_generator_2_1\.MEMORY_35\.s_currentState
*132 CIRCUIT_2223\.tone_generator_2_1\.MEMORY_36\.d
*133 CIRCUIT_2223\.tone_generator_2_1\.MEMORY_36\.s_currentState
*134 CIRCUIT_2223\.tone_generator_2_1\.MEMORY_37\.d
*135 CIRCUIT_2223\.tone_generator_2_1\.MEMORY_37\.s_currentState
*136 CIRCUIT_2223\.tone_generator_2_1\.MEMORY_38\.s_currentState
*137 CIRCUIT_2223\.tone_generator_2_1\.MEMORY_39\.d
*138 CIRCUIT_2223\.tone_generator_2_1\.MEMORY_39\.s_currentState
*139 CIRCUIT_2223\.tone_generator_2_2\.GATES_10\.input2
*140 CIRCUIT_2223\.tone_generator_2_2\.GATES_11\.input2
*141 CIRCUIT_2223\.tone_generator_2_2\.GATES_12\.input2
*142 CIRCUIT_2223\.tone_generator_2_2\.GATES_13\.input2
*143 CIRCUIT_2223\.tone_generator_2_2\.GATES_14\.input2
*144 CIRCUIT_2223\.tone_generator_2_2\.GATES_15\.input2
*145 CIRCUIT_2223\.tone_generator_2_2\.GATES_16\.input2
*146 CIRCUIT_2223\.tone_generator_2_2\.GATES_17\.input2
*147 CIRCUIT_2223\.tone_generator_2_2\.GATES_27\.result
*148 CIRCUIT_2223\.tone_generator_2_2\.GATES_7\.input2
*149 CIRCUIT_2223\.tone_generator_2_2\.GATES_8\.input2
*150 CIRCUIT_2223\.tone_generator_2_2\.GATES_9\.input2
*151 CIRCUIT_2223\.tone_generator_2_2\.MEMORY_28\.clock
*152 CIRCUIT_2223\.tone_generator_2_2\.MEMORY_28\.d
*153 CIRCUIT_2223\.tone_generator_2_2\.MEMORY_28\.s_currentState
*154 CIRCUIT_2223\.tone_generator_2_2\.MEMORY_29\.d
*155 CIRCUIT_2223\.tone_generator_2_2\.MEMORY_29\.s_currentState
*156 CIRCUIT_2223\.tone_generator_2_2\.MEMORY_30\.d
*157 CIRCUIT_2223\.tone_generator_2_2\.MEMORY_30\.s_currentState
*158 CIRCUIT_2223\.tone_generator_2_2\.MEMORY_31\.d
*159 CIRCUIT_2223\.tone_generator_2_2\.MEMORY_31\.s_currentState
*160 CIRCUIT_2223\.tone_generator_2_2\.MEMORY_32\.d
*161 CIRCUIT_2223\.tone_generator_2_2\.MEMORY_32\.s_currentState
*162 CIRCUIT_2223\.tone_generator_2_2\.MEMORY_33\.d
*163 CIRCUIT_2223\.tone_generator_2_2\.MEMORY_33\.s_currentState
*164 CIRCUIT_2223\.tone_generator_2_2\.MEMORY_34\.d
*165 CIRCUIT_2223\.tone_generator_2_2\.MEMORY_34\.s_currentState
*166 CIRCUIT_2223\.tone_generator_2_2\.MEMORY_35\.d
*167 CIRCUIT_2223\.tone_generator_2_2\.MEMORY_35\.s_currentState
*168 CIRCUIT_2223\.tone_generator_2_2\.MEMORY_36\.d
*169 CIRCUIT_2223\.tone_generator_2_2\.MEMORY_36\.s_currentState
*170 CIRCUIT_2223\.tone_generator_2_2\.MEMORY_37\.d
*171 CIRCUIT_2223\.tone_generator_2_2\.MEMORY_37\.s_currentState
*172 CIRCUIT_2223\.tone_generator_2_2\.MEMORY_38\.s_currentState
*173 CIRCUIT_2223\.tone_generator_2_2\.MEMORY_39\.d
*174 CIRCUIT_2223\.tone_generator_2_2\.MEMORY_39\.s_currentState
*175 CIRCUIT_2223\.triangle_wave_generator_1\.GATES_10\.input2
*176 CIRCUIT_2223\.triangle_wave_generator_1\.GATES_11\.input2
*177 CIRCUIT_2223\.triangle_wave_generator_1\.GATES_12\.input2
*178 CIRCUIT_2223\.triangle_wave_generator_1\.GATES_13\.input2
*179 CIRCUIT_2223\.triangle_wave_generator_1\.GATES_14\.input2
*180 CIRCUIT_2223\.triangle_wave_generator_1\.GATES_15\.input2
*181 CIRCUIT_2223\.triangle_wave_generator_1\.GATES_16\.input2
*182 CIRCUIT_2223\.triangle_wave_generator_1\.GATES_17\.input2
*183 CIRCUIT_2223\.triangle_wave_generator_1\.GATES_27\.result
*184 CIRCUIT_2223\.triangle_wave_generator_1\.GATES_7\.input2
*185 CIRCUIT_2223\.triangle_wave_generator_1\.GATES_8\.input2
*186 CIRCUIT_2223\.triangle_wave_generator_1\.GATES_9\.input2
*187 CIRCUIT_2223\.triangle_wave_generator_1\.MEMORY_28\.clock
*188 CIRCUIT_2223\.triangle_wave_generator_1\.MEMORY_28\.d
*189 CIRCUIT_2223\.triangle_wave_generator_1\.MEMORY_28\.s_currentState
*190 CIRCUIT_2223\.triangle_wave_generator_1\.MEMORY_29\.d
*191 CIRCUIT_2223\.triangle_wave_generator_1\.MEMORY_29\.s_currentState
*192 CIRCUIT_2223\.triangle_wave_generator_1\.MEMORY_30\.d
*193 CIRCUIT_2223\.triangle_wave_generator_1\.MEMORY_30\.s_currentState
*194 CIRCUIT_2223\.triangle_wave_generator_1\.MEMORY_31\.d
*195 CIRCUIT_2223\.triangle_wave_generator_1\.MEMORY_31\.s_currentState
*196 CIRCUIT_2223\.triangle_wave_generator_1\.MEMORY_32\.d
*197 CIRCUIT_2223\.triangle_wave_generator_1\.MEMORY_32\.s_currentState
*198 CIRCUIT_2223\.triangle_wave_generator_1\.MEMORY_33\.d
*199 CIRCUIT_2223\.triangle_wave_generator_1\.MEMORY_33\.s_currentState
*200 CIRCUIT_2223\.triangle_wave_generator_1\.MEMORY_34\.d
*201 CIRCUIT_2223\.triangle_wave_generator_1\.MEMORY_34\.s_currentState
*202 CIRCUIT_2223\.triangle_wave_generator_1\.MEMORY_35\.d
*203 CIRCUIT_2223\.triangle_wave_generator_1\.MEMORY_35\.s_currentState
*204 CIRCUIT_2223\.triangle_wave_generator_1\.MEMORY_36\.d
*205 CIRCUIT_2223\.triangle_wave_generator_1\.MEMORY_36\.s_currentState
*206 CIRCUIT_2223\.triangle_wave_generator_1\.MEMORY_37\.d
*207 CIRCUIT_2223\.triangle_wave_generator_1\.MEMORY_37\.s_currentState
*208 CIRCUIT_2223\.triangle_wave_generator_1\.MEMORY_38\.s_currentState
*209 CIRCUIT_2223\.triangle_wave_generator_1\.MEMORY_39\.d
*210 CIRCUIT_2223\.triangle_wave_generator_1\.MEMORY_39\.s_currentState
*211 CIRCUIT_2223\.triangle_wave_generator_1\.MEMORY_40\.clock
*212 CIRCUIT_2223\.triangle_wave_generator_1\.MEMORY_40\.d
*213 CIRCUIT_2223\.triangle_wave_generator_1\.MEMORY_40\.s_currentState
*214 CIRCUIT_2223\.triangle_wave_generator_1\.MEMORY_41\.clock
*215 CIRCUIT_2223\.triangle_wave_generator_1\.MEMORY_41\.s_currentState
*216 CIRCUIT_2223\.triangle_wave_generator_1\.MEMORY_42\.s_currentState
*217 _0000_
*218 _0001_
*219 _0002_
*220 _0003_
*221 _0004_
*222 _0005_
*223 _0006_
*224 _0007_
*225 _0008_
*226 _0009_
*227 _0010_
*228 _0011_
*229 _0012_
*230 _0013_
*231 _0014_
*232 _0015_
*233 _0016_
*234 _0017_
*235 _0018_
*236 _0019_
*237 _0020_
*238 _0021_
*239 _0022_
*240 _0023_
*241 _0024_
*242 _0025_
*243 _0026_
*244 _0027_
*245 _0028_
*246 _0029_
*247 _0030_
*248 _0031_
*249 _0032_
*250 _0033_
*251 _0034_
*252 _0035_
*253 _0036_
*254 _0037_
*255 _0038_
*256 _0039_
*257 _0040_
*258 _0041_
*259 _0042_
*260 _0043_
*261 _0044_
*262 _0045_
*263 _0046_
*264 _0047_
*265 _0048_
*266 _0049_
*267 _0050_
*268 _0051_
*269 _0052_
*270 _0053_
*271 _0054_
*272 _0055_
*273 _0056_
*274 _0057_
*275 _0058_
*276 _0059_
*277 _0060_
*278 _0061_
*279 _0062_
*280 _0063_
*281 _0064_
*282 _0065_
*283 _0066_
*284 _0067_
*285 _0068_
*286 _0069_
*287 _0070_
*288 _0071_
*289 _0072_
*290 _0073_
*291 _0074_
*292 _0075_
*293 _0076_
*294 _0077_
*295 _0078_
*296 _0079_
*297 _0080_
*298 _0081_
*299 _0082_
*300 _0083_
*301 _0084_
*302 _0085_
*303 _0086_
*304 _0087_
*305 _0088_
*306 _0089_
*307 _0090_
*308 _0091_
*309 _0092_
*310 _0093_
*311 _0094_
*312 _0095_
*313 _0096_
*314 _0097_
*315 _0098_
*316 _0099_
*317 _0100_
*318 _0101_
*319 _0102_
*320 _0103_
*321 _0104_
*322 _0105_
*323 _0106_
*324 _0107_
*325 _0108_
*326 _0109_
*327 _0110_
*328 _0111_
*329 _0112_
*330 _0113_
*331 _0114_
*332 _0115_
*333 _0116_
*334 _0117_
*335 _0118_
*336 _0119_
*337 _0120_
*338 _0121_
*339 _0122_
*340 _0123_
*341 _0124_
*342 _0125_
*343 _0126_
*344 _0127_
*345 _0128_
*346 _0129_
*347 _0130_
*348 _0131_
*349 _0132_
*350 _0133_
*351 _0134_
*352 _0135_
*353 _0136_
*354 _0137_
*355 _0138_
*356 _0139_
*357 _0140_
*358 _0141_
*359 _0142_
*360 _0143_
*361 _0144_
*362 _0145_
*363 _0146_
*364 _0147_
*365 _0148_
*366 _0149_
*367 _0150_
*368 _0151_
*369 _0152_
*370 _0153_
*371 _0154_
*372 _0155_
*373 _0156_
*374 _0157_
*375 _0158_
*376 _0159_
*377 _0160_
*378 _0161_
*379 _0162_
*380 _0163_
*381 _0164_
*382 _0165_
*383 _0166_
*384 _0167_
*385 _0168_
*386 _0169_
*387 _0170_
*388 _0171_
*389 _0172_
*390 _0173_
*391 _0174_
*392 _0175_
*393 _0176_
*394 _0177_
*395 _0178_
*396 _0179_
*397 _0180_
*398 _0181_
*399 _0182_
*400 _0183_
*401 _0184_
*402 _0185_
*403 _0186_
*404 _0187_
*405 _0188_
*406 _0189_
*407 _0190_
*408 _0191_
*409 _0192_
*410 _0193_
*411 _0194_
*412 _0195_
*413 _0196_
*414 _0197_
*415 _0198_
*416 _0199_
*417 _0200_
*418 _0201_
*419 _0202_
*420 _0203_
*421 _0204_
*422 _0205_
*423 _0206_
*424 _0207_
*425 _0208_
*426 _0209_
*427 _0210_
*428 _0211_
*429 _0212_
*430 _0213_
*431 _0214_
*432 _0215_
*433 _0216_
*434 _0217_
*435 _0218_
*436 _0219_
*437 _0220_
*438 _0221_
*439 _0222_
*440 _0223_
*441 _0224_
*442 _0225_
*443 _0226_
*444 _0227_
*445 _0228_
*446 _0229_
*447 _0230_
*448 _0231_
*449 _0232_
*450 _0233_
*451 _0234_
*452 _0235_
*453 _0236_
*454 _0237_
*455 _0238_
*456 _0239_
*457 _0240_
*458 _0241_
*459 _0242_
*460 _0243_
*461 _0244_
*462 _0245_
*463 _0246_
*464 _0247_
*465 _0248_
*466 _0249_
*467 _0250_
*468 _0251_
*469 _0252_
*470 _0253_
*471 _0254_
*472 _0255_
*473 _0256_
*474 _0257_
*475 _0258_
*476 _0259_
*477 _0260_
*478 _0261_
*479 _0262_
*480 _0263_
*481 _0264_
*482 _0265_
*483 _0266_
*484 _0267_
*485 _0268_
*486 _0269_
*487 _0270_
*488 _0271_
*489 _0272_
*490 _0273_
*491 _0274_
*492 _0275_
*493 _0276_
*494 _0277_
*495 _0278_
*496 _0279_
*497 _0280_
*498 _0281_
*499 _0282_
*500 _0283_
*501 _0284_
*502 _0285_
*503 _0286_
*504 _0287_
*505 _0288_
*506 _0289_
*507 _0290_
*508 _0291_
*509 _0292_
*510 _0293_
*511 _0294_
*512 _0295_
*513 _0296_
*514 _0297_
*515 _0298_
*516 _0299_
*517 _0300_
*518 _0301_
*519 _0302_
*520 _0303_
*521 _0304_
*522 _0305_
*523 _0306_
*524 _0307_
*525 _0308_
*526 _0309_
*527 _0310_
*528 _0311_
*529 _0312_
*530 _0313_
*531 _0314_
*532 _0315_
*533 _0316_
*534 _0317_
*535 _0318_
*536 _0319_
*537 _0320_
*538 _0321_
*539 _0322_
*540 _0323_
*541 _0324_
*542 _0325_
*543 _0326_
*544 _0327_
*545 _0328_
*546 _0329_
*547 _0330_
*548 _0331_
*549 _0332_
*550 _0333_
*551 _0334_
*552 _0335_
*553 _0336_
*554 _0337_
*555 _0338_
*556 _0339_
*557 _0340_
*558 _0341_
*559 _0342_
*560 _0343_
*561 _0344_
*562 _0345_
*563 _0346_
*564 _0347_
*565 _0348_
*566 _0349_
*567 _0350_
*568 _0351_
*569 _0352_
*570 _0353_
*571 _0354_
*572 _0355_
*573 _0356_
*574 _0357_
*575 _0358_
*576 _0359_
*577 _0360_
*578 _0361_
*579 _0362_
*580 _0363_
*581 _0364_
*582 _0365_
*583 _0366_
*584 _0367_
*585 _0368_
*586 _0369_
*587 _0370_
*588 _0371_
*589 _0372_
*590 _0373_
*591 _0374_
*592 _0375_
*593 _0376_
*594 _0377_
*595 _0378_
*596 _0379_
*597 _0380_
*598 _0381_
*599 _0382_
*600 _0383_
*601 _0384_
*602 _0385_
*603 _0386_
*604 _0387_
*605 _0388_
*606 _0389_
*607 _0390_
*608 _0391_
*609 _0392_
*610 _0393_
*611 _0394_
*612 _0395_
*613 _0396_
*614 _0397_
*615 _0398_
*616 _0399_
*617 _0400_
*618 _0401_
*619 _0402_
*620 _0403_
*621 _0404_
*622 _0405_
*623 _0406_
*624 _0407_
*625 _0408_
*626 _0409_
*627 _0410_
*628 _0411_
*629 _0412_
*630 _0413_
*631 _0414_
*632 _0415_
*633 _0416_
*634 _0417_
*635 _0418_
*636 _0419_
*637 _0420_
*638 _0421_
*639 _0422_
*640 _0423_
*641 _0424_
*642 _0425_
*643 _0426_
*644 _0427_
*645 _0428_
*646 _0429_
*647 _0430_
*648 _0431_
*649 _0432_
*650 _0433_
*651 _0434_
*652 _0435_
*653 _0436_
*654 _0437_
*655 _0438_
*656 _0439_
*657 _0440_
*658 _0441_
*659 _0442_
*660 _0443_
*661 _0444_
*662 _0445_
*663 _0446_
*664 _0447_
*665 _0448_
*666 _0449_
*667 _0450_
*668 _0451_
*669 _0452_
*670 _0453_
*671 _0454_
*672 _0455_
*673 _0456_
*674 _0457_
*675 _0458_
*676 _0459_
*677 _0460_
*678 _0461_
*679 _0462_
*680 _0463_
*681 _0464_
*682 _0465_
*683 _0466_
*684 _0467_
*685 _0468_
*686 _0469_
*687 _0470_
*688 _0471_
*689 _0472_
*690 _0473_
*691 _0474_
*692 _0475_
*693 _0476_
*694 _0477_
*695 _0478_
*696 _0479_
*697 _0480_
*698 _0481_
*699 _0482_
*700 _0483_
*701 _0484_
*702 _0485_
*703 _0486_
*704 _0487_
*705 _0488_
*706 _0489_
*707 _0490_
*708 _0491_
*709 _0492_
*710 _0493_
*711 _0494_
*712 _0495_
*713 _0496_
*714 _0497_
*715 _0498_
*716 _0499_
*717 _0500_
*718 _0501_
*719 _0502_
*720 _0503_
*721 _0504_
*722 _0505_
*723 _0506_
*724 _0507_
*725 _0508_
*726 _0509_
*727 _0510_
*728 _0511_
*729 _0512_
*730 _0513_
*731 _0514_
*732 _0515_
*733 _0516_
*734 _0517_
*735 _0518_
*736 _0519_
*737 _0520_
*738 _0521_
*739 _0522_
*740 _0523_
*741 _0524_
*742 _0525_
*743 _0526_
*744 _0527_
*745 _0528_
*746 _0529_
*747 _0530_
*748 _0531_
*749 _0532_
*750 _0533_
*751 _0534_
*752 _0535_
*753 _0536_
*754 net1
*755 net10
*756 net11
*757 net12
*758 net13
*759 net14
*760 net15
*761 net16
*762 net17
*763 net18
*764 net19
*765 net2
*766 net20
*767 net21
*768 net22
*769 net23
*770 net24
*771 net25
*772 net26
*773 net27
*774 net28
*775 net29
*776 net3
*777 net30
*778 net31
*779 net32
*780 net33
*781 net34
*782 net35
*783 net36
*784 net37
*785 net38
*786 net39
*787 net4
*788 net40
*789 net41
*790 net42
*791 net43
*792 net44
*793 net45
*794 net46
*795 net47
*796 net48
*797 net49
*798 net5
*799 net50
*800 net51
*801 net52
*802 net53
*803 net54
*804 net55
*805 net56
*806 net57
*807 net58
*808 net59
*809 net6
*810 net60
*811 net61
*812 net7
*813 net8
*814 net9
*815 slow_clock\[0\]
*816 slow_clock\[1\]
*817 slow_clock\[2\]
*818 slow_clock\[3\]
*819 slow_clock\[4\]
*820 slow_clock\[5\]
*821 slow_clock\[6\]
*822 spi_dac_i_2\.counter\[0\]
*823 spi_dac_i_2\.counter\[1\]
*824 spi_dac_i_2\.counter\[2\]
*825 spi_dac_i_2\.counter\[3\]
*826 spi_dac_i_2\.counter\[4\]
*827 spi_dac_i_2\.spi_dat_buff\[0\]
*828 spi_dac_i_2\.spi_dat_buff\[10\]
*829 spi_dac_i_2\.spi_dat_buff\[11\]
*830 spi_dac_i_2\.spi_dat_buff\[1\]
*831 spi_dac_i_2\.spi_dat_buff\[2\]
*832 spi_dac_i_2\.spi_dat_buff\[3\]
*833 spi_dac_i_2\.spi_dat_buff\[4\]
*834 spi_dac_i_2\.spi_dat_buff\[5\]
*835 spi_dac_i_2\.spi_dat_buff\[6\]
*836 spi_dac_i_2\.spi_dat_buff\[7\]
*837 spi_dac_i_2\.spi_dat_buff\[8\]
*838 spi_dac_i_2\.spi_dat_buff\[9\]
*839 ANTENNA__0537__I
*840 ANTENNA__0540__A1
*841 ANTENNA__0540__A2
*842 ANTENNA__0542__A1
*843 ANTENNA__0542__A2
*844 ANTENNA__0545__I0
*845 ANTENNA__0550__I0
*846 ANTENNA__0553__I
*847 ANTENNA__0554__I0
*848 ANTENNA__0556__I
*849 ANTENNA__0558__I0
*850 ANTENNA__0577__I
*851 ANTENNA__0578__A2
*852 ANTENNA__0579__I
*853 ANTENNA__0726__I
*854 ANTENNA__0763__I
*855 ANTENNA__0774__I1
*856 ANTENNA__0777__A1
*857 ANTENNA__0780__A1
*858 ANTENNA__0845__A1
*859 ANTENNA__0861__I
*860 ANTENNA__0862__I
*861 ANTENNA__0863__I
*862 ANTENNA__0870__I
*863 ANTENNA__0879__I
*864 ANTENNA__0881__A1
*865 ANTENNA__0884__A1
*866 ANTENNA__0887__A1
*867 ANTENNA__0889__I
*868 ANTENNA__0890__A1
*869 ANTENNA__0895__A1
*870 ANTENNA__0897__I
*871 ANTENNA__0898__A1
*872 ANTENNA__0900__I1
*873 ANTENNA__0902__A1
*874 ANTENNA__0904__I
*875 ANTENNA__0905__A1
*876 ANTENNA__0906__I0
*877 ANTENNA__0910__A1
*878 ANTENNA__0912__A1
*879 ANTENNA__0914__I0
*880 ANTENNA__0916__I
*881 ANTENNA__0921__A1
*882 ANTENNA__0921__A2
*883 ANTENNA__0924__A1
*884 ANTENNA__0926__A1
*885 ANTENNA__0950__A1
*886 ANTENNA__0950__A2
*887 ANTENNA__0953__B
*888 ANTENNA__0964__I
*889 ANTENNA__0974__I
*890 ANTENNA__0985__I0
*891 ANTENNA__0988__A1
*892 ANTENNA__0990__A1
*893 ANTENNA__0992__I
*894 ANTENNA__0993__A1
*895 ANTENNA__0995__A1
*896 ANTENNA__0997__I1
*897 ANTENNA__0997__S
*898 ANTENNA__0999__I1
*899 ANTENNA__0999__S
*900 ANTENNA__1002__I0
*901 ANTENNA__1005__A1
*902 ANTENNA__1007__A1
*903 ANTENNA__1009__I0
*904 ANTENNA__1013__A1
*905 ANTENNA__1016__A1
*906 ANTENNA__1024__I
*907 ANTENNA__1043__I0
*908 ANTENNA__1045__A1
*909 ANTENNA__1047__I0
*910 ANTENNA__1053__I0
*911 ANTENNA__1057__A1
*912 ANTENNA__1060__I1
*913 ANTENNA__1063__A1
*914 ANTENNA__1065__I1
*915 ANTENNA__1067__A1
*916 ANTENNA__1070__A1
*917 ANTENNA__1073__A1
*918 ANTENNA__1096__A1
*919 ANTENNA__1099__I1
*920 ANTENNA__1102__A1
*921 ANTENNA__1104__A1
*922 ANTENNA__1110__I0
*923 ANTENNA__1114__A1
*924 ANTENNA__1117__I0
*925 ANTENNA__1120__A1
*926 ANTENNA__1122__I0
*927 ANTENNA__1124__A1
*928 ANTENNA__1126__I
*929 ANTENNA__1163__CLK
*930 ANTENNA__1172__CLK
*931 ANTENNA__1205__CLK
*932 ANTENNA__1212__CLK
*933 ANTENNA__1221__CLK
*934 ANTENNA__1247__CLK
*935 ANTENNA__1270__CLK
*936 ANTENNA__1289__D
*937 ANTENNA__1290__CLKN
*938 ANTENNA__1290__D
*939 ANTENNA__1302__CLKN
*940 ANTENNA_fanout24_I
*941 ANTENNA_fanout41_I
*942 ANTENNA_fanout47_I
*943 ANTENNA_fanout52_I
*944 ANTENNA_fanout61_I
*945 ANTENNA_input1_I
*946 ANTENNA_input2_I
*947 ANTENNA_input3_I
*948 ANTENNA_input4_I
*949 ANTENNA_input5_I
*950 ANTENNA_input6_I
*951 ANTENNA_input7_I
*952 ANTENNA_input8_I
*953 FILLER_0_0_104
*954 FILLER_0_0_108
*955 FILLER_0_0_123
*956 FILLER_0_0_131
*957 FILLER_0_0_135
*958 FILLER_0_0_138
*959 FILLER_0_0_172
*960 FILLER_0_0_174
*961 FILLER_0_0_181
*962 FILLER_0_0_189
*963 FILLER_0_0_197
*964 FILLER_0_0_2
*965 FILLER_0_0_201
*966 FILLER_0_0_203
*967 FILLER_0_0_206
*968 FILLER_0_0_240
*969 FILLER_0_0_274
*970 FILLER_0_0_290
*971 FILLER_0_0_298
*972 FILLER_0_0_304
*973 FILLER_0_0_308
*974 FILLER_0_0_316
*975 FILLER_0_0_320
*976 FILLER_0_0_334
*977 FILLER_0_0_338
*978 FILLER_0_0_342
*979 FILLER_0_0_36
*980 FILLER_0_0_376
*981 FILLER_0_0_70
*982 FILLER_0_10_100
*983 FILLER_0_10_104
*984 FILLER_0_10_107
*985 FILLER_0_10_111
*986 FILLER_0_10_127
*987 FILLER_0_10_160
*988 FILLER_0_10_168
*989 FILLER_0_10_172
*990 FILLER_0_10_177
*991 FILLER_0_10_2
*992 FILLER_0_10_219
*993 FILLER_0_10_223
*994 FILLER_0_10_264
*995 FILLER_0_10_268
*996 FILLER_0_10_331
*997 FILLER_0_10_34
*998 FILLER_0_10_37
*999 FILLER_0_10_373
*1000 FILLER_0_10_381
*1001 FILLER_0_10_383
*1002 FILLER_0_10_69
*1003 FILLER_0_10_85
*1004 FILLER_0_10_93
*1005 FILLER_0_11_104
*1006 FILLER_0_11_108
*1007 FILLER_0_11_110
*1008 FILLER_0_11_163
*1009 FILLER_0_11_167
*1010 FILLER_0_11_175
*1011 FILLER_0_11_177
*1012 FILLER_0_11_196
*1013 FILLER_0_11_2
*1014 FILLER_0_11_200
*1015 FILLER_0_11_208
*1016 FILLER_0_11_212
*1017 FILLER_0_11_230
*1018 FILLER_0_11_232
*1019 FILLER_0_11_256
*1020 FILLER_0_11_266
*1021 FILLER_0_11_270
*1022 FILLER_0_11_321
*1023 FILLER_0_11_325
*1024 FILLER_0_11_331
*1025 FILLER_0_11_337
*1026 FILLER_0_11_345
*1027 FILLER_0_11_349
*1028 FILLER_0_11_352
*1029 FILLER_0_11_379
*1030 FILLER_0_11_381
*1031 FILLER_0_11_66
*1032 FILLER_0_11_72
*1033 FILLER_0_12_104
*1034 FILLER_0_12_107
*1035 FILLER_0_12_111
*1036 FILLER_0_12_113
*1037 FILLER_0_12_163
*1038 FILLER_0_12_167
*1039 FILLER_0_12_170
*1040 FILLER_0_12_174
*1041 FILLER_0_12_177
*1042 FILLER_0_12_179
*1043 FILLER_0_12_186
*1044 FILLER_0_12_190
*1045 FILLER_0_12_194
*1046 FILLER_0_12_2
*1047 FILLER_0_12_210
*1048 FILLER_0_12_214
*1049 FILLER_0_12_233
*1050 FILLER_0_12_237
*1051 FILLER_0_12_241
*1052 FILLER_0_12_247
*1053 FILLER_0_12_251
*1054 FILLER_0_12_255
*1055 FILLER_0_12_258
*1056 FILLER_0_12_262
*1057 FILLER_0_12_264
*1058 FILLER_0_12_267
*1059 FILLER_0_12_271
*1060 FILLER_0_12_275
*1061 FILLER_0_12_277
*1062 FILLER_0_12_325
*1063 FILLER_0_12_34
*1064 FILLER_0_12_37
*1065 FILLER_0_12_374
*1066 FILLER_0_12_69
*1067 FILLER_0_12_85
*1068 FILLER_0_12_93
*1069 FILLER_0_12_97
*1070 FILLER_0_13_113
*1071 FILLER_0_13_117
*1072 FILLER_0_13_142
*1073 FILLER_0_13_146
*1074 FILLER_0_13_154
*1075 FILLER_0_13_178
*1076 FILLER_0_13_186
*1077 FILLER_0_13_196
*1078 FILLER_0_13_2
*1079 FILLER_0_13_204
*1080 FILLER_0_13_212
*1081 FILLER_0_13_277
*1082 FILLER_0_13_279
*1083 FILLER_0_13_288
*1084 FILLER_0_13_306
*1085 FILLER_0_13_308
*1086 FILLER_0_13_343
*1087 FILLER_0_13_352
*1088 FILLER_0_13_354
*1089 FILLER_0_13_376
*1090 FILLER_0_13_66
*1091 FILLER_0_13_72
*1092 FILLER_0_13_80
*1093 FILLER_0_14_101
*1094 FILLER_0_14_112
*1095 FILLER_0_14_116
*1096 FILLER_0_14_139
*1097 FILLER_0_14_143
*1098 FILLER_0_14_147
*1099 FILLER_0_14_149
*1100 FILLER_0_14_2
*1101 FILLER_0_14_227
*1102 FILLER_0_14_229
*1103 FILLER_0_14_244
*1104 FILLER_0_14_263
*1105 FILLER_0_14_300
*1106 FILLER_0_14_304
*1107 FILLER_0_14_306
*1108 FILLER_0_14_309
*1109 FILLER_0_14_313
*1110 FILLER_0_14_317
*1111 FILLER_0_14_34
*1112 FILLER_0_14_349
*1113 FILLER_0_14_37
*1114 FILLER_0_14_371
*1115 FILLER_0_14_379
*1116 FILLER_0_14_383
*1117 FILLER_0_14_53
*1118 FILLER_0_14_61
*1119 FILLER_0_14_65
*1120 FILLER_0_15_109
*1121 FILLER_0_15_115
*1122 FILLER_0_15_119
*1123 FILLER_0_15_121
*1124 FILLER_0_15_128
*1125 FILLER_0_15_136
*1126 FILLER_0_15_142
*1127 FILLER_0_15_2
*1128 FILLER_0_15_209
*1129 FILLER_0_15_264
*1130 FILLER_0_15_282
*1131 FILLER_0_15_314
*1132 FILLER_0_15_330
*1133 FILLER_0_15_34
*1134 FILLER_0_15_346
*1135 FILLER_0_15_379
*1136 FILLER_0_15_383
*1137 FILLER_0_15_50
*1138 FILLER_0_15_58
*1139 FILLER_0_16_140
*1140 FILLER_0_16_144
*1141 FILLER_0_16_148
*1142 FILLER_0_16_152
*1143 FILLER_0_16_154
*1144 FILLER_0_16_191
*1145 FILLER_0_16_2
*1146 FILLER_0_16_208
*1147 FILLER_0_16_212
*1148 FILLER_0_16_244
*1149 FILLER_0_16_267
*1150 FILLER_0_16_281
*1151 FILLER_0_16_285
*1152 FILLER_0_16_289
*1153 FILLER_0_16_296
*1154 FILLER_0_16_312
*1155 FILLER_0_16_314
*1156 FILLER_0_16_317
*1157 FILLER_0_16_333
*1158 FILLER_0_16_34
*1159 FILLER_0_16_37
*1160 FILLER_0_16_383
*1161 FILLER_0_16_45
*1162 FILLER_0_16_49
*1163 FILLER_0_16_54
*1164 FILLER_0_16_62
*1165 FILLER_0_16_66
*1166 FILLER_0_16_68
*1167 FILLER_0_16_85
*1168 FILLER_0_17_110
*1169 FILLER_0_17_142
*1170 FILLER_0_17_2
*1171 FILLER_0_17_204
*1172 FILLER_0_17_227
*1173 FILLER_0_17_257
*1174 FILLER_0_17_261
*1175 FILLER_0_17_265
*1176 FILLER_0_17_273
*1177 FILLER_0_17_277
*1178 FILLER_0_17_279
*1179 FILLER_0_17_282
*1180 FILLER_0_17_284
*1181 FILLER_0_17_314
*1182 FILLER_0_17_34
*1183 FILLER_0_17_349
*1184 FILLER_0_17_352
*1185 FILLER_0_17_360
*1186 FILLER_0_17_367
*1187 FILLER_0_17_375
*1188 FILLER_0_17_69
*1189 FILLER_0_17_72
*1190 FILLER_0_17_74
*1191 FILLER_0_18_103
*1192 FILLER_0_18_141
*1193 FILLER_0_18_145
*1194 FILLER_0_18_149
*1195 FILLER_0_18_153
*1196 FILLER_0_18_195
*1197 FILLER_0_18_199
*1198 FILLER_0_18_2
*1199 FILLER_0_18_243
*1200 FILLER_0_18_247
*1201 FILLER_0_18_251
*1202 FILLER_0_18_267
*1203 FILLER_0_18_271
*1204 FILLER_0_18_273
*1205 FILLER_0_18_325
*1206 FILLER_0_18_34
*1207 FILLER_0_18_37
*1208 FILLER_0_18_373
*1209 FILLER_0_18_381
*1210 FILLER_0_18_383
*1211 FILLER_0_18_83
*1212 FILLER_0_18_87
*1213 FILLER_0_18_99
*1214 FILLER_0_19_101
*1215 FILLER_0_19_113
*1216 FILLER_0_19_115
*1217 FILLER_0_19_124
*1218 FILLER_0_19_134
*1219 FILLER_0_19_138
*1220 FILLER_0_19_147
*1221 FILLER_0_19_149
*1222 FILLER_0_19_156
*1223 FILLER_0_19_164
*1224 FILLER_0_19_168
*1225 FILLER_0_19_170
*1226 FILLER_0_19_179
*1227 FILLER_0_19_183
*1228 FILLER_0_19_199
*1229 FILLER_0_19_201
*1230 FILLER_0_19_208
*1231 FILLER_0_19_218
*1232 FILLER_0_19_226
*1233 FILLER_0_19_230
*1234 FILLER_0_19_234
*1235 FILLER_0_19_236
*1236 FILLER_0_19_260
*1237 FILLER_0_19_268
*1238 FILLER_0_19_288
*1239 FILLER_0_19_290
*1240 FILLER_0_19_317
*1241 FILLER_0_19_321
*1242 FILLER_0_19_337
*1243 FILLER_0_19_341
*1244 FILLER_0_19_343
*1245 FILLER_0_19_348
*1246 FILLER_0_19_352
*1247 FILLER_0_19_36
*1248 FILLER_0_19_377
*1249 FILLER_0_19_381
*1250 FILLER_0_19_383
*1251 FILLER_0_19_40
*1252 FILLER_0_19_54
*1253 FILLER_0_19_67
*1254 FILLER_0_19_69
*1255 FILLER_0_19_72
*1256 FILLER_0_19_76
*1257 FILLER_0_19_78
*1258 FILLER_0_1_128
*1259 FILLER_0_1_132
*1260 FILLER_0_1_150
*1261 FILLER_0_1_154
*1262 FILLER_0_1_156
*1263 FILLER_0_1_170
*1264 FILLER_0_1_2
*1265 FILLER_0_1_218
*1266 FILLER_0_1_234
*1267 FILLER_0_1_249
*1268 FILLER_0_1_253
*1269 FILLER_0_1_257
*1270 FILLER_0_1_266
*1271 FILLER_0_1_274
*1272 FILLER_0_1_278
*1273 FILLER_0_1_282
*1274 FILLER_0_1_290
*1275 FILLER_0_1_345
*1276 FILLER_0_1_349
*1277 FILLER_0_1_352
*1278 FILLER_0_1_356
*1279 FILLER_0_1_362
*1280 FILLER_0_1_378
*1281 FILLER_0_1_66
*1282 FILLER_0_1_72
*1283 FILLER_0_1_88
*1284 FILLER_0_1_92
*1285 FILLER_0_20_10
*1286 FILLER_0_20_102