*SPEF "ieee 1481-1999"
*DESIGN "tholin_avalonsemi_tbb1143"
*DATE "13:16:57 Thursday July 31, 2025"
*VENDOR "The OpenROAD Project"
*PROGRAM "OpenROAD"
*VERSION "b16bda7e82721d10566ff7e2b68f1ff0be9f9e38"
*DESIGN_FLOW "NAME_SCOPE LOCAL" "PIN_CAP NONE"
*DIVIDER /
*DELIMITER :
*BUS_DELIMITER []
*T_UNIT 1 NS
*C_UNIT 1 PF
*R_UNIT 1 OHM
*L_UNIT 1 HENRY

*NAME_MAP
*1 clk
*2 io_in[0]
*3 io_in[1]
*4 io_in[2]
*5 io_in[3]
*6 io_in[4]
*7 io_in[5]
*8 io_out[0]
*9 io_out[1]
*10 io_out[2]
*11 io_out[3]
*12 io_out[4]
*13 rst_n
*16 CIRCUIT_2223\.CLK
*17 CIRCUIT_2223\.GATES_1\.input1\[0\]
*18 CIRCUIT_2223\.GATES_1\.input1\[1\]
*19 CIRCUIT_2223\.GATES_1\.input1\[2\]
*20 CIRCUIT_2223\.GATES_1\.input1\[3\]
*21 CIRCUIT_2223\.GATES_2\.input2
*22 CIRCUIT_2223\.GATES_3\.input2
*23 CIRCUIT_2223\.GATES_4\.input1\[0\]
*24 CIRCUIT_2223\.GATES_4\.input1\[1\]
*25 CIRCUIT_2223\.GATES_4\.input1\[2\]
*26 CIRCUIT_2223\.GATES_4\.input1\[3\]
*27 CIRCUIT_2223\.GATES_5\.input2
*28 CIRCUIT_2223\.MEMORY_18\.s_currentState
*29 CIRCUIT_2223\.MEMORY_19\.s_currentState
*30 CIRCUIT_2223\.MEMORY_20\.s_currentState
*31 CIRCUIT_2223\.MEMORY_21\.s_currentState
*32 CIRCUIT_2223\.MEMORY_22\.s_currentState
*33 CIRCUIT_2223\.MEMORY_23\.s_currentState
*34 CIRCUIT_2223\.MEMORY_24\.s_currentState
*35 CIRCUIT_2223\.MEMORY_25\.s_currentState
*36 CIRCUIT_2223\.MEMORY_26\.s_currentState
*37 CIRCUIT_2223\.MEMORY_28\.s_currentState
*38 CIRCUIT_2223\.MEMORY_29\.s_currentState
*39 CIRCUIT_2223\.s_logisimNet48
*40 CIRCUIT_2223\.tone_generator_1\.GATES_1\.result
*41 CIRCUIT_2223\.tone_generator_1\.GATES_2\.result
*42 CIRCUIT_2223\.tone_generator_1\.GATES_3\.result
*43 CIRCUIT_2223\.tone_generator_1\.MEMORY_10\.s_currentState
*44 CIRCUIT_2223\.tone_generator_1\.MEMORY_11\.s_currentState
*45 CIRCUIT_2223\.tone_generator_1\.MEMORY_12\.s_currentState
*46 CIRCUIT_2223\.tone_generator_1\.MEMORY_13\.s_currentState
*47 CIRCUIT_2223\.tone_generator_1\.MEMORY_14\.s_currentState
*48 CIRCUIT_2223\.tone_generator_1\.MEMORY_15\.s_currentState
*49 CIRCUIT_2223\.tone_generator_1\.MEMORY_16\.s_currentState
*50 CIRCUIT_2223\.tone_generator_1\.MEMORY_17\.s_currentState
*51 CIRCUIT_2223\.tone_generator_1\.MEMORY_18\.s_currentState
*52 CIRCUIT_2223\.tone_generator_1\.MEMORY_19\.s_currentState
*53 CIRCUIT_2223\.tone_generator_1\.MEMORY_20\.s_currentState
*54 CIRCUIT_2223\.tone_generator_1\.MEMORY_4\.s_currentState
*55 CIRCUIT_2223\.tone_generator_1\.MEMORY_6\.s_currentState
*56 CIRCUIT_2223\.tone_generator_1\.MEMORY_7\.s_currentState
*57 CIRCUIT_2223\.tone_generator_1\.MEMORY_8\.s_currentState
*58 CIRCUIT_2223\.tone_generator_1\.MEMORY_9\.s_currentState
*59 CIRCUIT_2223\.tone_generator_1\.tone_generator_2_1\.GATES_10\.input2
*60 CIRCUIT_2223\.tone_generator_1\.tone_generator_2_1\.GATES_11\.input2
*61 CIRCUIT_2223\.tone_generator_1\.tone_generator_2_1\.GATES_12\.input2
*62 CIRCUIT_2223\.tone_generator_1\.tone_generator_2_1\.GATES_13\.input2
*63 CIRCUIT_2223\.tone_generator_1\.tone_generator_2_1\.GATES_14\.input2
*64 CIRCUIT_2223\.tone_generator_1\.tone_generator_2_1\.GATES_15\.input2
*65 CIRCUIT_2223\.tone_generator_1\.tone_generator_2_1\.GATES_16\.input2
*66 CIRCUIT_2223\.tone_generator_1\.tone_generator_2_1\.GATES_17\.input2
*67 CIRCUIT_2223\.tone_generator_1\.tone_generator_2_1\.GATES_27\.result
*68 CIRCUIT_2223\.tone_generator_1\.tone_generator_2_1\.GATES_7\.input2
*69 CIRCUIT_2223\.tone_generator_1\.tone_generator_2_1\.GATES_8\.input2
*70 CIRCUIT_2223\.tone_generator_1\.tone_generator_2_1\.GATES_9\.input2
*71 CIRCUIT_2223\.tone_generator_1\.tone_generator_2_1\.MEMORY_28\.s_currentState
*72 CIRCUIT_2223\.tone_generator_1\.tone_generator_2_1\.MEMORY_29\.s_currentState
*73 CIRCUIT_2223\.tone_generator_1\.tone_generator_2_1\.MEMORY_30\.s_currentState
*74 CIRCUIT_2223\.tone_generator_1\.tone_generator_2_1\.MEMORY_31\.s_currentState
*75 CIRCUIT_2223\.tone_generator_1\.tone_generator_2_1\.MEMORY_32\.s_currentState
*76 CIRCUIT_2223\.tone_generator_1\.tone_generator_2_1\.MEMORY_33\.s_currentState
*77 CIRCUIT_2223\.tone_generator_1\.tone_generator_2_1\.MEMORY_34\.s_currentState
*78 CIRCUIT_2223\.tone_generator_1\.tone_generator_2_1\.MEMORY_35\.s_currentState
*79 CIRCUIT_2223\.tone_generator_1\.tone_generator_2_1\.MEMORY_36\.s_currentState
*80 CIRCUIT_2223\.tone_generator_1\.tone_generator_2_1\.MEMORY_37\.s_currentState
*81 CIRCUIT_2223\.tone_generator_1\.tone_generator_2_1\.MEMORY_38\.s_currentState
*82 CIRCUIT_2223\.tone_generator_1\.tone_generator_2_1\.MEMORY_39\.d
*83 CIRCUIT_2223\.tone_generator_1\.tone_generator_2_1\.MEMORY_39\.s_currentState
*84 CIRCUIT_2223\.tone_generator_2_1\.GATES_10\.input2
*85 CIRCUIT_2223\.tone_generator_2_1\.GATES_11\.input2
*86 CIRCUIT_2223\.tone_generator_2_1\.GATES_12\.input2
*87 CIRCUIT_2223\.tone_generator_2_1\.GATES_13\.input2
*88 CIRCUIT_2223\.tone_generator_2_1\.GATES_14\.input2
*89 CIRCUIT_2223\.tone_generator_2_1\.GATES_15\.input2
*90 CIRCUIT_2223\.tone_generator_2_1\.GATES_16\.input2
*91 CIRCUIT_2223\.tone_generator_2_1\.GATES_17\.input2
*92 CIRCUIT_2223\.tone_generator_2_1\.GATES_27\.result
*93 CIRCUIT_2223\.tone_generator_2_1\.GATES_7\.input2
*94 CIRCUIT_2223\.tone_generator_2_1\.GATES_8\.input2
*95 CIRCUIT_2223\.tone_generator_2_1\.GATES_9\.input2
*96 CIRCUIT_2223\.tone_generator_2_1\.MEMORY_28\.s_currentState
*97 CIRCUIT_2223\.tone_generator_2_1\.MEMORY_29\.s_currentState
*98 CIRCUIT_2223\.tone_generator_2_1\.MEMORY_30\.s_currentState
*99 CIRCUIT_2223\.tone_generator_2_1\.MEMORY_31\.s_currentState
*100 CIRCUIT_2223\.tone_generator_2_1\.MEMORY_32\.s_currentState
*101 CIRCUIT_2223\.tone_generator_2_1\.MEMORY_33\.s_currentState
*102 CIRCUIT_2223\.tone_generator_2_1\.MEMORY_34\.s_currentState
*103 CIRCUIT_2223\.tone_generator_2_1\.MEMORY_35\.s_currentState
*104 CIRCUIT_2223\.tone_generator_2_1\.MEMORY_36\.s_currentState
*105 CIRCUIT_2223\.tone_generator_2_1\.MEMORY_37\.s_currentState
*106 CIRCUIT_2223\.tone_generator_2_1\.MEMORY_38\.s_currentState
*107 CIRCUIT_2223\.tone_generator_2_1\.MEMORY_39\.d
*108 CIRCUIT_2223\.tone_generator_2_1\.MEMORY_39\.s_currentState
*109 CIRCUIT_2223\.tone_generator_2_2\.GATES_10\.input2
*110 CIRCUIT_2223\.tone_generator_2_2\.GATES_11\.input2
*111 CIRCUIT_2223\.tone_generator_2_2\.GATES_12\.input2
*112 CIRCUIT_2223\.tone_generator_2_2\.GATES_13\.input2
*113 CIRCUIT_2223\.tone_generator_2_2\.GATES_14\.input2
*114 CIRCUIT_2223\.tone_generator_2_2\.GATES_15\.input2
*115 CIRCUIT_2223\.tone_generator_2_2\.GATES_16\.input2
*116 CIRCUIT_2223\.tone_generator_2_2\.GATES_17\.input2
*117 CIRCUIT_2223\.tone_generator_2_2\.GATES_27\.result
*118 CIRCUIT_2223\.tone_generator_2_2\.GATES_7\.input2
*119 CIRCUIT_2223\.tone_generator_2_2\.GATES_8\.input2
*120 CIRCUIT_2223\.tone_generator_2_2\.GATES_9\.input2
*121 CIRCUIT_2223\.tone_generator_2_2\.MEMORY_28\.s_currentState
*122 CIRCUIT_2223\.tone_generator_2_2\.MEMORY_29\.s_currentState
*123 CIRCUIT_2223\.tone_generator_2_2\.MEMORY_30\.s_currentState
*124 CIRCUIT_2223\.tone_generator_2_2\.MEMORY_31\.s_currentState
*125 CIRCUIT_2223\.tone_generator_2_2\.MEMORY_32\.s_currentState
*126 CIRCUIT_2223\.tone_generator_2_2\.MEMORY_33\.s_currentState
*127 CIRCUIT_2223\.tone_generator_2_2\.MEMORY_34\.s_currentState
*128 CIRCUIT_2223\.tone_generator_2_2\.MEMORY_35\.s_currentState
*129 CIRCUIT_2223\.tone_generator_2_2\.MEMORY_36\.s_currentState
*130 CIRCUIT_2223\.tone_generator_2_2\.MEMORY_37\.s_currentState
*131 CIRCUIT_2223\.tone_generator_2_2\.MEMORY_38\.s_currentState
*132 CIRCUIT_2223\.tone_generator_2_2\.MEMORY_39\.d
*133 CIRCUIT_2223\.tone_generator_2_2\.MEMORY_39\.s_currentState
*134 CIRCUIT_2223\.triangle_wave_generator_1\.GATES_10\.input2
*135 CIRCUIT_2223\.triangle_wave_generator_1\.GATES_11\.input2
*136 CIRCUIT_2223\.triangle_wave_generator_1\.GATES_12\.input2
*137 CIRCUIT_2223\.triangle_wave_generator_1\.GATES_13\.input2
*138 CIRCUIT_2223\.triangle_wave_generator_1\.GATES_14\.input2
*139 CIRCUIT_2223\.triangle_wave_generator_1\.GATES_15\.input2
*140 CIRCUIT_2223\.triangle_wave_generator_1\.GATES_16\.input2
*141 CIRCUIT_2223\.triangle_wave_generator_1\.GATES_17\.input2
*142 CIRCUIT_2223\.triangle_wave_generator_1\.GATES_27\.result
*143 CIRCUIT_2223\.triangle_wave_generator_1\.GATES_7\.input2
*144 CIRCUIT_2223\.triangle_wave_generator_1\.GATES_8\.input2
*145 CIRCUIT_2223\.triangle_wave_generator_1\.GATES_9\.input2
*146 CIRCUIT_2223\.triangle_wave_generator_1\.MEMORY_28\.s_currentState
*147 CIRCUIT_2223\.triangle_wave_generator_1\.MEMORY_29\.s_currentState
*148 CIRCUIT_2223\.triangle_wave_generator_1\.MEMORY_30\.s_currentState
*149 CIRCUIT_2223\.triangle_wave_generator_1\.MEMORY_31\.s_currentState
*150 CIRCUIT_2223\.triangle_wave_generator_1\.MEMORY_32\.s_currentState
*151 CIRCUIT_2223\.triangle_wave_generator_1\.MEMORY_33\.s_currentState
*152 CIRCUIT_2223\.triangle_wave_generator_1\.MEMORY_34\.s_currentState
*153 CIRCUIT_2223\.triangle_wave_generator_1\.MEMORY_35\.s_currentState
*154 CIRCUIT_2223\.triangle_wave_generator_1\.MEMORY_36\.s_currentState
*155 CIRCUIT_2223\.triangle_wave_generator_1\.MEMORY_37\.s_currentState
*156 CIRCUIT_2223\.triangle_wave_generator_1\.MEMORY_38\.s_currentState
*157 CIRCUIT_2223\.triangle_wave_generator_1\.MEMORY_39\.d
*158 CIRCUIT_2223\.triangle_wave_generator_1\.MEMORY_39\.s_currentState
*159 CIRCUIT_2223\.triangle_wave_generator_1\.MEMORY_40\.clock
*160 CIRCUIT_2223\.triangle_wave_generator_1\.MEMORY_40\.d
*161 CIRCUIT_2223\.triangle_wave_generator_1\.MEMORY_40\.s_currentState
*162 CIRCUIT_2223\.triangle_wave_generator_1\.MEMORY_41\.clock
*163 CIRCUIT_2223\.triangle_wave_generator_1\.MEMORY_41\.s_currentState
*164 CIRCUIT_2223\.triangle_wave_generator_1\.MEMORY_42\.s_currentState
*165 _0000_
*166 _0001_
*167 _0002_
*168 _0003_
*169 _0004_
*170 _0005_
*171 _0006_
*172 _0007_
*173 _0008_
*174 _0009_
*175 _0010_
*176 _0011_
*177 _0012_
*178 _0013_
*179 _0014_
*180 _0015_
*181 _0016_
*182 _0017_
*183 _0018_
*184 _0019_
*185 _0020_
*186 _0021_
*187 _0022_
*188 _0023_
*189 _0024_
*190 _0025_
*191 _0026_
*192 _0027_
*193 _0028_
*194 _0029_
*195 _0030_
*196 _0031_
*197 _0032_
*198 _0033_
*199 _0034_
*200 _0035_
*201 _0036_
*202 _0037_
*203 _0038_
*204 _0039_
*205 _0040_
*206 _0041_
*207 _0042_
*208 _0043_
*209 _0044_
*210 _0045_
*211 _0046_
*212 _0047_
*213 _0048_
*214 _0049_
*215 _0050_
*216 _0051_
*217 _0052_
*218 _0053_
*219 _0054_
*220 _0055_
*221 _0056_
*222 _0057_
*223 _0058_
*224 _0059_
*225 _0060_
*226 _0061_
*227 _0062_
*228 _0063_
*229 _0064_
*230 _0065_
*231 _0066_
*232 _0067_
*233 _0068_
*234 _0069_
*235 _0070_
*236 _0071_
*237 _0072_
*238 _0073_
*239 _0074_
*240 _0075_
*241 _0076_
*242 _0077_
*243 _0078_
*244 _0079_
*245 _0080_
*246 _0081_
*247 _0082_
*248 _0083_
*249 _0084_
*250 _0085_
*251 _0086_
*252 _0087_
*253 _0088_
*254 _0089_
*255 _0090_
*256 _0091_
*257 _0092_
*258 _0093_
*259 _0094_
*260 _0095_
*261 _0096_
*262 _0097_
*263 _0098_
*264 _0099_
*265 _0100_
*266 _0101_
*267 _0102_
*268 _0103_
*269 _0104_
*270 _0105_
*271 _0106_
*272 _0107_
*273 _0108_
*274 _0109_
*275 _0110_
*276 _0111_
*277 _0112_
*278 _0113_
*279 _0114_
*280 _0115_
*281 _0116_
*282 _0117_
*283 _0118_
*284 _0119_
*285 _0120_
*286 _0121_
*287 _0122_
*288 _0123_
*289 _0124_
*290 _0125_
*291 _0126_
*292 _0127_
*293 _0128_
*294 _0129_
*295 _0130_
*296 _0131_
*297 _0132_
*298 _0133_
*299 _0134_
*300 _0135_
*301 _0136_
*302 _0137_
*303 _0138_
*304 _0139_
*305 _0140_
*306 _0141_
*307 _0142_
*308 _0143_
*309 _0144_
*310 _0145_
*311 _0146_
*312 _0147_
*313 _0148_
*314 _0149_
*315 _0150_
*316 _0151_
*317 _0152_
*318 _0153_
*319 _0154_
*320 _0155_
*321 _0156_
*322 _0157_
*323 _0158_
*324 _0159_
*325 _0160_
*326 _0161_
*327 _0162_
*328 _0163_
*329 _0164_
*330 _0165_
*331 _0166_
*332 _0167_
*333 _0168_
*334 _0169_
*335 _0170_
*336 _0171_
*337 _0172_
*338 _0173_
*339 _0174_
*340 _0175_
*341 _0176_
*342 _0177_
*343 _0178_
*344 _0179_
*345 _0180_
*346 _0181_
*347 _0182_
*348 _0183_
*349 _0184_
*350 _0185_
*351 _0186_
*352 _0187_
*353 _0188_
*354 _0189_
*355 _0190_
*356 _0191_
*357 _0192_
*358 _0193_
*359 _0194_
*360 _0195_
*361 _0196_
*362 _0197_
*363 _0198_
*364 _0199_
*365 _0200_
*366 _0201_
*367 _0202_
*368 _0203_
*369 _0204_
*370 _0205_
*371 _0206_
*372 _0207_
*373 _0208_
*374 _0209_
*375 _0210_
*376 _0211_
*377 _0212_
*378 _0213_
*379 _0214_
*380 _0215_
*381 _0216_
*382 _0217_
*383 _0218_
*384 _0219_
*385 _0220_
*386 _0221_
*387 _0222_
*388 _0223_
*389 _0224_
*390 _0225_
*391 _0226_
*392 _0227_
*393 _0228_
*394 _0229_
*395 _0230_
*396 _0231_
*397 _0232_
*398 _0233_
*399 _0234_
*400 _0235_
*401 _0236_
*402 _0237_
*403 _0238_
*404 _0239_
*405 _0240_
*406 _0241_
*407 _0242_
*408 _0243_
*409 _0244_
*410 _0245_
*411 _0246_
*412 _0247_
*413 _0248_
*414 _0249_
*415 _0250_
*416 _0251_
*417 _0252_
*418 _0253_
*419 _0254_
*420 _0255_
*421 _0256_
*422 _0257_
*423 _0258_
*424 _0259_
*425 _0260_
*426 _0261_
*427 _0262_
*428 _0263_
*429 _0264_
*430 _0265_
*431 _0266_
*432 _0267_
*433 _0268_
*434 _0269_
*435 _0270_
*436 _0271_
*437 _0272_
*438 _0273_
*439 _0274_
*440 _0275_
*441 _0276_
*442 _0277_
*443 _0278_
*444 _0279_
*445 _0280_
*446 _0281_
*447 _0282_
*448 _0283_
*449 _0284_
*450 _0285_
*451 _0286_
*452 _0287_
*453 _0288_
*454 _0289_
*455 _0290_
*456 _0291_
*457 _0292_
*458 _0293_
*459 _0294_
*460 _0295_
*461 _0296_
*462 _0297_
*463 _0298_
*464 _0299_
*465 _0300_
*466 _0301_
*467 _0302_
*468 _0303_
*469 _0304_
*470 _0305_
*471 _0306_
*472 _0307_
*473 _0308_
*474 _0309_
*475 _0310_
*476 _0311_
*477 _0312_
*478 _0313_
*479 _0314_
*480 _0315_
*481 _0316_
*482 _0317_
*483 _0318_
*484 _0319_
*485 _0320_
*486 _0321_
*487 _0322_
*488 _0323_
*489 _0324_
*490 _0325_
*491 _0326_
*492 _0327_
*493 _0328_
*494 _0329_
*495 _0330_
*496 _0331_
*497 _0332_
*498 _0333_
*499 _0334_
*500 _0335_
*501 _0336_
*502 _0337_
*503 _0338_
*504 _0339_
*505 _0340_
*506 _0341_
*507 _0342_
*508 _0343_
*509 _0344_
*510 _0345_
*511 _0346_
*512 _0347_
*513 _0348_
*514 _0349_
*515 _0350_
*516 _0351_
*517 _0352_
*518 _0353_
*519 _0354_
*520 _0355_
*521 _0356_
*522 _0357_
*523 _0358_
*524 _0359_
*525 _0360_
*526 _0361_
*527 _0362_
*528 _0363_
*529 _0364_
*530 _0365_
*531 _0366_
*532 _0367_
*533 _0368_
*534 _0369_
*535 _0370_
*536 _0371_
*537 _0372_
*538 _0373_
*539 _0374_
*540 _0375_
*541 _0376_
*542 _0377_
*543 _0378_
*544 _0379_
*545 _0380_
*546 _0381_
*547 _0382_
*548 _0383_
*549 _0384_
*550 _0385_
*551 _0386_
*552 _0387_
*553 _0388_
*554 _0389_
*555 _0390_
*556 _0391_
*557 _0392_
*558 _0393_
*559 _0394_
*560 _0395_
*561 _0396_
*562 _0397_
*563 _0398_
*564 _0399_
*565 _0400_
*566 _0401_
*567 _0402_
*568 _0403_
*569 _0404_
*570 _0405_
*571 _0406_
*572 _0407_
*573 _0408_
*574 _0409_
*575 _0410_
*576 _0411_
*577 _0412_
*578 _0413_
*579 _0414_
*580 _0415_
*581 _0416_
*582 _0417_
*583 _0418_
*584 _0419_
*585 _0420_
*586 _0421_
*587 _0422_
*588 _0423_
*589 _0424_
*590 _0425_
*591 _0426_
*592 _0427_
*593 _0428_
*594 _0429_
*595 _0430_
*596 _0431_
*597 _0432_
*598 _0433_
*599 _0434_
*600 _0435_
*601 _0436_
*602 _0437_
*603 _0438_
*604 _0439_
*605 _0440_
*606 _0441_
*607 _0442_
*608 _0443_
*609 _0444_
*610 _0445_
*611 _0446_
*612 _0447_
*613 _0448_
*614 _0449_
*615 _0450_
*616 _0451_
*617 _0452_
*618 _0453_
*619 _0454_
*620 _0455_
*621 _0456_
*622 _0457_
*623 _0458_
*624 _0459_
*625 _0460_
*626 _0461_
*627 _0462_
*628 _0463_
*629 _0464_
*630 _0465_
*631 _0466_
*632 _0467_
*633 _0468_
*634 _0469_
*635 _0470_
*636 _0471_
*637 _0472_
*638 _0473_
*639 _0474_
*640 _0475_
*641 _0476_
*642 _0477_
*643 _0478_
*644 _0479_
*645 _0480_
*646 _0481_
*647 _0482_
*648 _0483_
*649 _0484_
*650 _0485_
*651 _0486_
*652 _0487_
*653 _0488_
*654 _0489_
*655 _0490_
*656 _0491_
*657 _0492_
*658 _0493_
*659 _0494_
*660 _0495_
*661 _0496_
*662 _0497_
*663 _0498_
*664 _0499_
*665 _0500_
*666 _0501_
*667 _0502_
*668 _0503_
*669 _0504_
*670 _0505_
*671 _0506_
*672 _0507_
*673 _0508_
*674 _0509_
*675 _0510_
*676 _0511_
*677 _0512_
*678 _0513_
*679 _0514_
*680 _0515_
*681 _0516_
*682 _0517_
*683 _0518_
*684 _0519_
*685 _0520_
*686 _0521_
*687 _0522_
*688 _0523_
*689 _0524_
*690 _0525_
*691 _0526_
*692 _0527_
*693 _0528_
*694 clknet_0__0209_
*695 clknet_0__0210_
*696 clknet_0__0228_
*697 clknet_0__0229_
*698 clknet_0__0230_
*699 clknet_0__0231_
*700 clknet_0__0254_
*701 clknet_0__0255_
*702 clknet_0__0256_
*703 clknet_0__0257_
*704 clknet_0__0282_
*705 clknet_0__0283_
*706 clknet_0__0284_
*707 clknet_0__0285_
*708 clknet_0__0310_
*709 clknet_0__0311_
*710 clknet_0__0312_
*711 clknet_0__0313_
*712 clknet_0_clk
*713 clknet_1_0__leaf__0209_
*714 clknet_1_0__leaf__0210_
*715 clknet_1_0__leaf__0228_
*716 clknet_1_0__leaf__0229_
*717 clknet_1_0__leaf__0230_
*718 clknet_1_0__leaf__0231_
*719 clknet_1_0__leaf__0254_
*720 clknet_1_0__leaf__0255_
*721 clknet_1_0__leaf__0256_
*722 clknet_1_0__leaf__0257_
*723 clknet_1_0__leaf__0282_
*724 clknet_1_0__leaf__0283_
*725 clknet_1_0__leaf__0284_
*726 clknet_1_0__leaf__0285_
*727 clknet_1_0__leaf__0310_
*728 clknet_1_0__leaf__0311_
*729 clknet_1_0__leaf__0312_
*730 clknet_1_0__leaf__0313_
*731 clknet_1_1__leaf__0209_
*732 clknet_1_1__leaf__0210_
*733 clknet_1_1__leaf__0228_
*734 clknet_1_1__leaf__0229_
*735 clknet_1_1__leaf__0230_
*736 clknet_1_1__leaf__0231_
*737 clknet_1_1__leaf__0254_
*738 clknet_1_1__leaf__0255_
*739 clknet_1_1__leaf__0256_
*740 clknet_1_1__leaf__0257_
*741 clknet_1_1__leaf__0282_
*742 clknet_1_1__leaf__0283_
*743 clknet_1_1__leaf__0284_
*744 clknet_1_1__leaf__0285_
*745 clknet_1_1__leaf__0310_
*746 clknet_1_1__leaf__0311_
*747 clknet_1_1__leaf__0312_
*748 clknet_1_1__leaf__0313_
*749 clknet_2_0__leaf_clk
*750 clknet_2_1__leaf_clk
*751 clknet_2_2__leaf_clk
*752 clknet_2_3__leaf_clk
*753 net1
*754 net10
*755 net11
*756 net12
*757 net13
*758 net14
*759 net15
*760 net16
*761 net17
*762 net18
*763 net19
*764 net2
*765 net20
*766 net21
*767 net22
*768 net23
*769 net24
*770 net25
*771 net26
*772 net27
*773 net28
*774 net29
*775 net3
*776 net30
*777 net31
*778 net32
*779 net33
*780 net34
*781 net35
*782 net36
*783 net37
*784 net38
*785 net39
*786 net4
*787 net40
*788 net41
*789 net42
*790 net43
*791 net44
*792 net45
*793 net46
*794 net47
*795 net5
*796 net6
*797 net7
*798 net8
*799 net9
*800 slow_clock\[0\]
*801 slow_clock\[1\]
*802 slow_clock\[2\]
*803 slow_clock\[3\]
*804 slow_clock\[4\]
*805 slow_clock\[5\]
*806 slow_clock\[6\]
*807 spi_dac_i_2\.counter\[0\]
*808 spi_dac_i_2\.counter\[1\]
*809 spi_dac_i_2\.counter\[2\]
*810 spi_dac_i_2\.counter\[3\]
*811 spi_dac_i_2\.counter\[4\]
*812 spi_dac_i_2\.spi_clk
*813 spi_dac_i_2\.spi_dat
*814 spi_dac_i_2\.spi_dat_buff\[0\]
*815 spi_dac_i_2\.spi_dat_buff\[10\]
*816 spi_dac_i_2\.spi_dat_buff\[11\]
*817 spi_dac_i_2\.spi_dat_buff\[1\]
*818 spi_dac_i_2\.spi_dat_buff\[2\]
*819 spi_dac_i_2\.spi_dat_buff\[3\]
*820 spi_dac_i_2\.spi_dat_buff\[4\]
*821 spi_dac_i_2\.spi_dat_buff\[5\]
*822 spi_dac_i_2\.spi_dat_buff\[6\]
*823 spi_dac_i_2\.spi_dat_buff\[7\]
*824 spi_dac_i_2\.spi_dat_buff\[8\]
*825 spi_dac_i_2\.spi_dat_buff\[9\]
*826 spi_dac_i_2\.spi_le
*827 ANTENNA__0532__B
*828 ANTENNA__0541__A
*829 ANTENNA__0544__A
*830 ANTENNA__0546__B
*831 ANTENNA__0551__B
*832 ANTENNA__0685__B
*833 ANTENNA__0713__A
*834 ANTENNA__0754__A
*835 ANTENNA__0755__A
*836 ANTENNA__0757__A
*837 ANTENNA__0758__A
*838 ANTENNA__0760__A
*839 ANTENNA__0761__A
*840 ANTENNA__0862__A
*841 ANTENNA__0864__A
*842 ANTENNA__0866__A
*843 ANTENNA__0868__A
*844 ANTENNA__0869__A
*845 ANTENNA__0891__A
*846 ANTENNA__0893__A
*847 ANTENNA__0895__A
*848 ANTENNA__0897__A
*849 ANTENNA__0899__A
*850 ANTENNA__0902__A
*851 ANTENNA__0904__A
*852 ANTENNA__0906__A
*853 ANTENNA__0908__A
*854 ANTENNA__0910__A
*855 ANTENNA__0912__A
*856 ANTENNA__0928__A
*857 ANTENNA__0930__A
*858 ANTENNA__0932__A
*859 ANTENNA__0949__A
*860 ANTENNA__0951__A
*861 ANTENNA__0953__A
*862 ANTENNA__0955__A
*863 ANTENNA__0959__A
*864 ANTENNA__0961__A
*865 ANTENNA__0963__A
*866 ANTENNA__0971__A
*867 ANTENNA__0990__A
*868 ANTENNA__0997__S
*869 ANTENNA__0999__A
*870 ANTENNA__0999__S
*871 ANTENNA__1001__S
*872 ANTENNA__1003__S
*873 ANTENNA__1008__A
*874 ANTENNA__1030__A
*875 ANTENNA__1039__A
*876 ANTENNA__1043__A
*877 ANTENNA__1052__A
*878 ANTENNA__1056__A
*879 ANTENNA__1062__A
*880 ANTENNA__1065__A
*881 ANTENNA__1069__A
*882 ANTENNA__1089__CLK
*883 ANTENNA__1090__CLK
*884 ANTENNA__1094__CLK
*885 ANTENNA__1095__CLK
*886 ANTENNA__1098__CLK
*887 ANTENNA__1136__CLK
*888 ANTENNA__1142__CLK
*889 ANTENNA__1155__CLK
*890 ANTENNA__1181__CLK
*891 ANTENNA__1204__CLK
*892 ANTENNA__1220__D
*893 ANTENNA__1221__CLK
*894 ANTENNA__1221__D
*895 ANTENNA_clkbuf_0_clk_A
*896 ANTENNA_clkload0_A
*897 ANTENNA_fanout20_A
*898 ANTENNA_input1_A
*899 ANTENNA_input2_A
*900 ANTENNA_input3_A
*901 ANTENNA_input4_A
*902 ANTENNA_input5_A
*903 FILLER_0_0_104
*904 FILLER_0_0_120
*905 FILLER_0_0_138
*906 FILLER_0_0_140
*907 FILLER_0_0_18
*908 FILLER_0_0_197
*909 FILLER_0_0_2
*910 FILLER_0_0_201
*911 FILLER_0_0_203
*912 FILLER_0_0_231
*913 FILLER_0_0_235
*914 FILLER_0_0_252
*915 FILLER_0_0_268
*916 FILLER_0_0_274
*917 FILLER_0_0_290
*918 FILLER_0_0_300
*919 FILLER_0_0_304
*920 FILLER_0_0_308
*921 FILLER_0_0_312
*922 FILLER_0_0_319
*923 FILLER_0_0_327
*924 FILLER_0_0_36
*925 FILLER_0_0_373
*926 FILLER_0_0_383
*927 FILLER_0_0_52
*928 FILLER_0_0_70
*929 FILLER_0_0_86
*930 FILLER_0_10_100
*931 FILLER_0_10_104
*932 FILLER_0_10_107
*933 FILLER_0_10_123
*934 FILLER_0_10_139
*935 FILLER_0_10_142
*936 FILLER_0_10_146
*937 FILLER_0_10_18
*938 FILLER_0_10_2
*939 FILLER_0_10_213
*940 FILLER_0_10_217
*941 FILLER_0_10_281
*942 FILLER_0_10_314
*943 FILLER_0_10_34
*944 FILLER_0_10_37
*945 FILLER_0_10_374
*946 FILLER_0_10_53
*947 FILLER_0_10_69
*948 FILLER_0_10_73
*949 FILLER_0_11_142
*950 FILLER_0_11_150
*951 FILLER_0_11_18
*952 FILLER_0_11_2
*953 FILLER_0_11_242
*954 FILLER_0_11_244
*955 FILLER_0_11_247
*956 FILLER_0_11_251
*957 FILLER_0_11_282
*958 FILLER_0_11_284
*959 FILLER_0_11_316
*960 FILLER_0_11_34
*961 FILLER_0_11_345
*962 FILLER_0_11_349
*963 FILLER_0_11_352
*964 FILLER_0_11_380
*965 FILLER_0_11_50
*966 FILLER_0_11_66
*967 FILLER_0_12_103
*968 FILLER_0_12_107
*969 FILLER_0_12_148
*970 FILLER_0_12_152
*971 FILLER_0_12_160
*972 FILLER_0_12_170
*973 FILLER_0_12_174
*974 FILLER_0_12_18
*975 FILLER_0_12_2
*976 FILLER_0_12_204
*977 FILLER_0_12_218
*978 FILLER_0_12_222
*979 FILLER_0_12_237
*980 FILLER_0_12_253
*981 FILLER_0_12_257
*982 FILLER_0_12_270
*983 FILLER_0_12_284
*984 FILLER_0_12_288
*985 FILLER_0_12_308
*986 FILLER_0_12_312
*987 FILLER_0_12_314
*988 FILLER_0_12_34
*989 FILLER_0_12_344
*990 FILLER_0_12_348
*991 FILLER_0_12_37
*992 FILLER_0_12_383
*993 FILLER_0_12_53
*994 FILLER_0_12_61
*995 FILLER_0_12_65
*996 FILLER_0_12_67
*997 FILLER_0_12_95
*998 FILLER_0_13_103
*999 FILLER_0_13_118
*1000 FILLER_0_13_169
*1001 FILLER_0_13_173
*1002 FILLER_0_13_175
*1003 FILLER_0_13_18
*1004 FILLER_0_13_2
*1005 FILLER_0_13_209
*1006 FILLER_0_13_212
*1007 FILLER_0_13_228
*1008 FILLER_0_13_232
*1009 FILLER_0_13_234
*1010 FILLER_0_13_262
*1011 FILLER_0_13_266
*1012 FILLER_0_13_268
*1013 FILLER_0_13_275
*1014 FILLER_0_13_279
*1015 FILLER_0_13_282
*1016 FILLER_0_13_34
*1017 FILLER_0_13_343
*1018 FILLER_0_13_352
*1019 FILLER_0_13_354
*1020 FILLER_0_13_381
*1021 FILLER_0_13_383
*1022 FILLER_0_13_50
*1023 FILLER_0_13_99
*1024 FILLER_0_14_102
*1025 FILLER_0_14_104
*1026 FILLER_0_14_121
*1027 FILLER_0_14_170
*1028 FILLER_0_14_174
*1029 FILLER_0_14_18
*1030 FILLER_0_14_2
*1031 FILLER_0_14_214
*1032 FILLER_0_14_222
*1033 FILLER_0_14_244
*1034 FILLER_0_14_265
*1035 FILLER_0_14_269
*1036 FILLER_0_14_285
*1037 FILLER_0_14_287
*1038 FILLER_0_14_294
*1039 FILLER_0_14_310
*1040 FILLER_0_14_314
*1041 FILLER_0_14_329
*1042 FILLER_0_14_337
*1043 FILLER_0_14_34
*1044 FILLER_0_14_345
*1045 FILLER_0_14_349
*1046 FILLER_0_14_351
*1047 FILLER_0_14_37
*1048 FILLER_0_14_379
*1049 FILLER_0_14_383
*1050 FILLER_0_14_53
*1051 FILLER_0_15_104
*1052 FILLER_0_15_131
*1053 FILLER_0_15_133
*1054 FILLER_0_15_160
*1055 FILLER_0_15_164
*1056 FILLER_0_15_172
*1057 FILLER_0_15_176
*1058 FILLER_0_15_18
*1059 FILLER_0_15_183
*1060 FILLER_0_15_2
*1061 FILLER_0_15_202
*1062 FILLER_0_15_206
*1063 FILLER_0_15_212
*1064 FILLER_0_15_216
*1065 FILLER_0_15_220
*1066 FILLER_0_15_271
*1067 FILLER_0_15_275
*1068 FILLER_0_15_279
*1069 FILLER_0_15_288
*1070 FILLER_0_15_292
*1071 FILLER_0_15_300
*1072 FILLER_0_15_308
*1073 FILLER_0_15_34
*1074 FILLER_0_15_347
*1075 FILLER_0_15_349
*1076 FILLER_0_15_352
*1077 FILLER_0_15_356
*1078 FILLER_0_15_375
*1079 FILLER_0_15_379
*1080 FILLER_0_15_383
*1081 FILLER_0_15_50
*1082 FILLER_0_15_72
*1083 FILLER_0_15_74
*1084 FILLER_0_16_121
*1085 FILLER_0_16_152
*1086 FILLER_0_16_166
*1087 FILLER_0_16_174
*1088 FILLER_0_16_177
*1089 FILLER_0_16_18
*1090 FILLER_0_16_185
*1091 FILLER_0_16_189
*1092 FILLER_0_16_191
*1093 FILLER_0_16_2
*1094 FILLER_0_16_219
*1095 FILLER_0_16_261
*1096 FILLER_0_16_263
*1097 FILLER_0_16_277
*1098 FILLER_0_16_281
*1099 FILLER_0_16_285
*1100 FILLER_0_16_299
*1101 FILLER_0_16_307
*1102 FILLER_0_16_317
*1103 FILLER_0_16_339
*1104 FILLER_0_16_34
*1105 FILLER_0_16_345
*1106 FILLER_0_16_349
*1107 FILLER_0_16_365
*1108 FILLER_0_16_37
*1109 FILLER_0_16_373
*1110 FILLER_0_16_375
*1111 FILLER_0_16_378
*1112 FILLER_0_16_53
*1113 FILLER_0_16_57
*1114 FILLER_0_17_124
*1115 FILLER_0_17_128
*1116 FILLER_0_17_130
*1117 FILLER_0_17_133
*1118 FILLER_0_17_154
*1119 FILLER_0_17_162
*1120 FILLER_0_17_18
*1121 FILLER_0_17_191
*1122 FILLER_0_17_2
*1123 FILLER_0_17_212
*1124 FILLER_0_17_266
*1125 FILLER_0_17_278
*1126 FILLER_0_17_282
*1127 FILLER_0_17_312
*1128 FILLER_0_17_328
*1129 FILLER_0_17_336
*1130 FILLER_0_17_34
*1131 FILLER_0_17_349
*1132 FILLER_0_17_352
*1133 FILLER_0_17_374
*1134 FILLER_0_17_50
*1135 FILLER_0_17_58
*1136 FILLER_0_17_64
*1137 FILLER_0_18_104
*1138 FILLER_0_18_121
*1139 FILLER_0_18_162
*1140 FILLER_0_18_166
*1141 FILLER_0_18_168
*1142 FILLER_0_18_18
*1143 FILLER_0_18_188
*1144 FILLER_0_18_196
*1145 FILLER_0_18_2
*1146 FILLER_0_18_225
*1147 FILLER_0_18_227
*1148 FILLER_0_18_247
*1149 FILLER_0_18_249
*1150 FILLER_0_18_264
*1151 FILLER_0_18_266
*1152 FILLER_0_18_287
*1153 FILLER_0_18_289
*1154 FILLER_0_18_302
*1155 FILLER_0_18_323
*1156 FILLER_0_18_34
*1157 FILLER_0_18_37
*1158 FILLER_0_18_53
*1159 FILLER_0_18_82
*1160 FILLER_0_19_128
*1161 FILLER_0_19_132
*1162 FILLER_0_19_154
*1163 FILLER_0_19_18
*1164 FILLER_0_19_197
*1165 FILLER_0_19_2
*1166 FILLER_0_19_218
*1167 FILLER_0_19_251
*1168 FILLER_0_19_255
*1169 FILLER_0_19_263
*1170 FILLER_0_19_282
*1171 FILLER_0_19_286
*1172 FILLER_0_19_34
*1173 FILLER_0_19_347
*1174 FILLER_0_19_349
*1175 FILLER_0_19_379
*1176 FILLER_0_19_381
*1177 FILLER_0_19_42
*1178 FILLER_0_19_44
*1179 FILLER_0_19_72
*1180 FILLER_0_19_91
*1181 FILLER_0_1_104
*1182 FILLER_0_1_120
*1183 FILLER_0_1_136
*1184 FILLER_0_1_142
*1185 FILLER_0_1_18
*1186 FILLER_0_1_194
*1187 FILLER_0_1_2
*1188 FILLER_0_1_212
*1189 FILLER_0_1_247
*1190 FILLER_0_1_263
*1191 FILLER_0_1_279
*1192 FILLER_0_1_282
*1193 FILLER_0_1_313
*1194 FILLER_0_1_315
*1195 FILLER_0_1_334
*1196 FILLER_0_1_34
*1197 FILLER_0_1_352
*1198 FILLER_0_1_354
*1199 FILLER_0_1_382
*1200 FILLER_0_1_50
*1201 FILLER_0_1_66
*1202 FILLER_0_1_72
*1203 FILLER_0_1_88
*1204 FILLER_0_20_132
*1205 FILLER_0_20_142
*1206 FILLER_0_20_158
*1207 FILLER_0_20_174
*1208 FILLER_0_20_18
*1209 FILLER_0_20_189
*1210 FILLER_0_20_193
*1211 FILLER_0_20_199
*1212 FILLER_0_20_2
*1213 FILLER_0_20_241
*1214 FILLER_0_20_254
*1215 FILLER_0_20_270
*1216 FILLER_0_20_286
*1217 FILLER_0_20_290
*1218 FILLER_0_20_311
*1219 FILLER_0_20_335
*1220 FILLER_0_20_339
*1221 FILLER_0_20_34
*1222 FILLER_0_20_37
*1223 FILLER_0_20_380
*1224 FILLER_0_20_53
*1225 FILLER_0_20_90
*1226 FILLER_0_21_124
*1227 FILLER_0_21_148
*1228 FILLER_0_21_156
*1229 FILLER_0_21_158
*1230 FILLER_0_21_18
*1231 FILLER_0_21_192
*1232 FILLER_0_21_2
*1233 FILLER_0_21_200
*1234 FILLER_0_21_206
*1235 FILLER_0_21_224
*1236 FILLER_0_21_237
*1237 FILLER_0_21_250
*1238 FILLER_0_21_252
*1239 FILLER_0_21_259
*1240 FILLER_0_21_274
*1241 FILLER_0_21_278
*1242 FILLER_0_21_306
*1243 FILLER_0_21_334
*1244 FILLER_0_21_34
*1245 FILLER_0_21_342
*1246 FILLER_0_21_358
*1247 FILLER_0_21_50
*1248 FILLER_0_21_58
*1249 FILLER_0_21_68
*1250 FILLER_0_22_103
*1251 FILLER_0_22_107
*1252 FILLER_0_22_161
*1253 FILLER_0_22_165
*1254 FILLER_0_22_18
*1255 FILLER_0_22_189
*1256 FILLER_0_22_193
*1257 FILLER_0_22_2
*1258 FILLER_0_22_201
*1259 FILLER_0_22_205
*1260 FILLER_0_22_226
*1261 FILLER_0_22_241
*1262 FILLER_0_22_247
*1263 FILLER_0_22_264
*1264 FILLER_0_22_266
*1265 FILLER_0_22_269
*1266 FILLER_0_22_271
*1267 FILLER_0_22_305
*1268 FILLER_0_22_309
*1269 FILLER_0_22_313
*1270 FILLER_0_22_317
*1271 FILLER_0_22_325
*1272 FILLER_0_22_329
*1273 FILLER_0_22_34
*1274 FILLER_0_22_354
*1275 FILLER_0_22_358
*1276 FILLER_0_22_360
*1277 FILLER_0_22_37
*1278 FILLER_0_22_381
*1279 FILLER_0_22_383
*1280 FILLER_0_22_41
*1281 FILLER_0_23_142
*1282 FILLER_0_23_144
*1283 FILLER_0_23_151
*1284 FILLER_0_23_178
*1285 FILLER_0_23_18
*1286 FILLER_0_23_194
*1287 FILLER_0_23_198
*1288 FILLER_0_23_2
*1289 FILLER_0_23_206
*1290 FILLER_0_23_212
*1291 FILLER_0_23_246
*1292 FILLER_0_23_267
*1293 FILLER_0_23_271
*1294 FILLER_0_23_275
*1295 FILLER_0_23_279
*1296 FILLER_0_23_309
*1297 FILLER_0_23_317
*1298 FILLER_0_23_321
*1299 FILLER_0_23_34
*1300 FILLER_0_23_352
*1301 FILLER_0_23_354
*1302 FILLER_0_23_382
*1303 FILLER_0_23_50
*1304 FILLER_0_23_58
*1305 FILLER_0_24_107
*1306 FILLER_0_24_147
*1307 FILLER_0_24_155
*1308 FILLER_0_24_159
*1309 FILLER_0_24_177
*1310 FILLER_0_24_18
*1311 FILLER_0_24_185
*1312 FILLER_0_24_193
*1313 FILLER_0_24_195
*1314 FILLER_0_24_2
*1315 FILLER_0_24_241
*1316 FILLER_0_24_274
*1317 FILLER_0_24_278
*1318 FILLER_0_24_286
*1319 FILLER_0_24_294
*1320 FILLER_0_24_298
*1321 FILLER_0_24_314
*1322 FILLER_0_24_34
*1323 FILLER_0_24_37
*1324 FILLER_0_24_383
*1325 FILLER_0_24_45
*1326 FILLER_0_24_49
*1327 FILLER_0_24_51
*1328 FILLER_0_24_77
*1329 FILLER_0_25_118
*1330 FILLER_0_25_122
*1331 FILLER_0_25_129
*1332 FILLER_0_25_139
*1333 FILLER_0_25_142
*1334 FILLER_0_25_158
*1335 FILLER_0_25_166
*1336 FILLER_0_25_18
*1337 FILLER_0_25_2
*1338 FILLER_0_25_204
*1339 FILLER_0_25_208
*1340 FILLER_0_25_290
*1341 FILLER_0_25_34
*1342 FILLER_0_25_352
*1343 FILLER_0_25_381
*1344 FILLER_0_25_383
*1345 FILLER_0_25_50