*SPEF "ieee 1481-1999"
*DESIGN "ue1"
*DATE "11:11:11 Fri 11 11, 1111"
*VENDOR "OpenRCX"
*PROGRAM "Parallel Extraction"
*VERSION "1.0"
*DESIGN_FLOW "NAME_SCOPE LOCAL" "PIN_CAP NONE"
*DIVIDER /
*DELIMITER :
*BUS_DELIMITER []
*T_UNIT 1 NS
*C_UNIT 1 PF
*R_UNIT 1 OHM
*L_UNIT 1 HENRY

*NAME_MAP
*1 clk
*2 io_in[0]
*3 io_in[1]
*4 io_in[2]
*5 io_in[3]
*6 io_in[4]
*7 io_oeb
*8 io_out[0]
*9 io_out[1]
*10 io_out[2]
*11 io_out[3]
*12 io_out[4]
*13 io_out[5]
*14 io_out[6]
*15 io_out[7]
*16 io_out[8]
*17 io_out[9]
*18 rst_n
*21 _000_
*22 _001_
*23 _002_
*24 _003_
*25 _004_
*26 _005_
*27 _006_
*28 _007_
*29 _008_
*30 _009_
*31 _010_
*32 _011_
*33 _012_
*34 _013_
*35 _014_
*36 _015_
*37 _016_
*38 _017_
*39 _018_
*40 _019_
*41 _020_
*42 _021_
*43 _022_
*44 _023_
*45 _024_
*46 _025_
*47 _026_
*48 _027_
*49 _028_
*50 _029_
*51 _030_
*52 _031_
*53 _032_
*54 _033_
*55 _034_
*56 _035_
*57 _036_
*58 _037_
*59 _038_
*60 _039_
*61 _040_
*62 _041_
*63 _042_
*64 _043_
*65 _044_
*66 _045_
*67 _046_
*68 _047_
*69 _048_
*70 _049_
*71 _050_
*72 _051_
*73 _052_
*74 _053_
*75 _054_
*76 _055_
*77 _056_
*78 _057_
*79 _058_
*80 _059_
*81 _060_
*82 _061_
*83 _062_
*84 _063_
*85 _064_
*86 _065_
*87 _066_
*88 _067_
*89 _068_
*90 _069_
*91 _070_
*92 _071_
*93 _072_
*94 _073_
*95 _074_
*96 _075_
*97 _076_
*98 _077_
*99 _078_
*100 _079_
*101 _080_
*102 _081_
*103 _082_
*104 _083_
*105 _084_
*106 _085_
*107 _086_
*108 _087_
*109 _088_
*110 _089_
*111 _090_
*112 _091_
*113 _092_
*114 _093_
*115 _094_
*116 _095_
*117 _096_
*118 _097_
*119 _098_
*120 _099_
*121 main\.GATES_100\.input2
*122 main\.GATES_102\.input1
*123 main\.GATES_102\.input2
*124 main\.GATES_102\.input3
*125 main\.GATES_103\.input2
*126 main\.GATES_105\.input3
*127 main\.GATES_106\.input2
*128 main\.GATES_107\.input2
*129 main\.GATES_108\.input1
*130 main\.GATES_109\.input2
*131 main\.GATES_11\.input2
*132 main\.GATES_110\.input1
*133 main\.GATES_113\.input1
*134 main\.GATES_114\.input2
*135 main\.GATES_115\.input2
*136 main\.GATES_116\.input1
*137 main\.GATES_116\.input3
*138 main\.GATES_119\.result
*139 main\.GATES_124\.input2
*140 main\.GATES_127\.result
*141 main\.GATES_132\.input1
*142 main\.GATES_15\.input3
*143 main\.GATES_16\.input1
*144 main\.GATES_18\.result
*145 main\.GATES_19\.input1
*146 main\.GATES_20\.result
*147 main\.GATES_26\.input3
*148 main\.GATES_29\.input3
*149 main\.GATES_46\.input3
*150 net1
*151 net10
*152 net11
*153 net12
*154 net13
*155 net14
*156 net15
*157 net16
*158 net17
*159 net2
*160 net3
*161 net4
*162 net5
*163 net6
*164 net7
*165 net8
*166 net9
*167 ANTENNA__100__I
*168 ANTENNA__107__I
*169 ANTENNA__127__I
*170 ANTENNA__156__A1
*171 ANTENNA__159__A1
*172 ANTENNA__162__B
*173 ANTENNA__189__A1
*174 ANTENNA__190__I
*175 ANTENNA__196__A1
*176 ANTENNA__213__B
*177 ANTENNA__222__A1
*178 ANTENNA__228__A1
*179 ANTENNA_input1_I
*180 ANTENNA_input2_I
*181 ANTENNA_input3_I
*182 ANTENNA_input4_I
*183 ANTENNA_input5_I
*184 ANTENNA_input6_I
*185 FILLER_0_0_104
*186 FILLER_0_0_138
*187 FILLER_0_0_172
*188 FILLER_0_0_2
*189 FILLER_0_0_36
*190 FILLER_0_0_70
*191 FILLER_0_10_103
*192 FILLER_0_10_137
*193 FILLER_0_10_147
*194 FILLER_0_10_154
*195 FILLER_0_10_162
*196 FILLER_0_10_166
*197 FILLER_0_10_174
*198 FILLER_0_10_177
*199 FILLER_0_10_18
*200 FILLER_0_10_185
*201 FILLER_0_10_187
*202 FILLER_0_10_2
*203 FILLER_0_10_23
*204 FILLER_0_10_31
*205 FILLER_0_10_37
*206 FILLER_0_10_69
*207 FILLER_0_10_73
*208 FILLER_0_10_75
*209 FILLER_0_10_84
*210 FILLER_0_10_92
*211 FILLER_0_10_94
*212 FILLER_0_11_127
*213 FILLER_0_11_135
*214 FILLER_0_11_139
*215 FILLER_0_11_142
*216 FILLER_0_11_146
*217 FILLER_0_11_155
*218 FILLER_0_11_165
*219 FILLER_0_11_167
*220 FILLER_0_11_18
*221 FILLER_0_11_186
*222 FILLER_0_11_2
*223 FILLER_0_11_26
*224 FILLER_0_11_34
*225 FILLER_0_11_50
*226 FILLER_0_11_58
*227 FILLER_0_11_72
*228 FILLER_0_11_95
*229 FILLER_0_12_101
*230 FILLER_0_12_107
*231 FILLER_0_12_115
*232 FILLER_0_12_136
*233 FILLER_0_12_144
*234 FILLER_0_12_146
*235 FILLER_0_12_163
*236 FILLER_0_12_177
*237 FILLER_0_12_185
*238 FILLER_0_12_187
*239 FILLER_0_12_2
*240 FILLER_0_12_30
*241 FILLER_0_12_34
*242 FILLER_0_12_43
*243 FILLER_0_12_59
*244 FILLER_0_12_70
*245 FILLER_0_12_74
*246 FILLER_0_12_76
*247 FILLER_0_12_85
*248 FILLER_0_13_10
*249 FILLER_0_13_111
*250 FILLER_0_13_127
*251 FILLER_0_13_135
*252 FILLER_0_13_139
*253 FILLER_0_13_142
*254 FILLER_0_13_174
*255 FILLER_0_13_178
*256 FILLER_0_13_2
*257 FILLER_0_13_43
*258 FILLER_0_13_59
*259 FILLER_0_13_67
*260 FILLER_0_13_69
*261 FILLER_0_13_72
*262 FILLER_0_13_79
*263 FILLER_0_14_102
*264 FILLER_0_14_104
*265 FILLER_0_14_107
*266 FILLER_0_14_111
*267 FILLER_0_14_124
*268 FILLER_0_14_156
*269 FILLER_0_14_172
*270 FILLER_0_14_174
*271 FILLER_0_14_177
*272 FILLER_0_14_18
*273 FILLER_0_14_185
*274 FILLER_0_14_187
*275 FILLER_0_14_2
*276 FILLER_0_14_33
*277 FILLER_0_14_37
*278 FILLER_0_14_53
*279 FILLER_0_14_61
*280 FILLER_0_14_63
*281 FILLER_0_14_73
*282 FILLER_0_14_77
*283 FILLER_0_14_79
*284 FILLER_0_14_82
*285 FILLER_0_14_98
*286 FILLER_0_15_10
*287 FILLER_0_15_104
*288 FILLER_0_15_108
*289 FILLER_0_15_132
*290 FILLER_0_15_14
*291 FILLER_0_15_152
*292 FILLER_0_15_156
*293 FILLER_0_15_16
*294 FILLER_0_15_174
*295 FILLER_0_15_182
*296 FILLER_0_15_186
*297 FILLER_0_15_2
*298 FILLER_0_15_21
*299 FILLER_0_15_53
*300 FILLER_0_15_61
*301 FILLER_0_15_63
*302 FILLER_0_15_88
*303 FILLER_0_16_101
*304 FILLER_0_16_107
*305 FILLER_0_16_115
*306 FILLER_0_16_119
*307 FILLER_0_16_128
*308 FILLER_0_16_144
*309 FILLER_0_16_152
*310 FILLER_0_16_156
*311 FILLER_0_16_174
*312 FILLER_0_16_18
*313 FILLER_0_16_181
*314 FILLER_0_16_185
*315 FILLER_0_16_2
*316 FILLER_0_16_26
*317 FILLER_0_16_33
*318 FILLER_0_16_37
*319 FILLER_0_16_45
*320 FILLER_0_16_77
*321 FILLER_0_16_93
*322 FILLER_0_17_10
*323 FILLER_0_17_115
*324 FILLER_0_17_119
*325 FILLER_0_17_132
*326 FILLER_0_17_142
*327 FILLER_0_17_158
*328 FILLER_0_17_2
*329 FILLER_0_17_25
*330 FILLER_0_17_57
*331 FILLER_0_17_65
*332 FILLER_0_17_69
*333 FILLER_0_17_78
*334 FILLER_0_17_82
*335 FILLER_0_17_84
*336 FILLER_0_17_95
*337 FILLER_0_17_99
*338 FILLER_0_18_10
*339 FILLER_0_18_107
*340 FILLER_0_18_12
*341 FILLER_0_18_139
*342 FILLER_0_18_155
*343 FILLER_0_18_159
*344 FILLER_0_18_161
*345 FILLER_0_18_172
*346 FILLER_0_18_174
*347 FILLER_0_18_177
*348 FILLER_0_18_185
*349 FILLER_0_18_187
*350 FILLER_0_18_2
*351 FILLER_0_18_31
*352 FILLER_0_18_37
*353 FILLER_0_18_53
*354 FILLER_0_18_69
*355 FILLER_0_18_77
*356 FILLER_0_18_79
*357 FILLER_0_18_97
*358 FILLER_0_19_10
*359 FILLER_0_19_108
*360 FILLER_0_19_110
*361 FILLER_0_19_119
*362 FILLER_0_19_12
*363 FILLER_0_19_123
*364 FILLER_0_19_125
*365 FILLER_0_19_138
*366 FILLER_0_19_142
*367 FILLER_0_19_156
*368 FILLER_0_19_172
*369 FILLER_0_19_2
*370 FILLER_0_19_29
*371 FILLER_0_19_37
*372 FILLER_0_19_61
*373 FILLER_0_19_65
*374 FILLER_0_19_69
*375 FILLER_0_19_72
*376 FILLER_0_19_95
*377 FILLER_0_19_97
*378 FILLER_0_1_136
*379 FILLER_0_1_142
*380 FILLER_0_1_174
*381 FILLER_0_1_182
*382 FILLER_0_1_186
*383 FILLER_0_1_2
*384 FILLER_0_1_66
*385 FILLER_0_1_72
*386 FILLER_0_20_10
*387 FILLER_0_20_103
*388 FILLER_0_20_113
*389 FILLER_0_20_121
*390 FILLER_0_20_128
*391 FILLER_0_20_144
*392 FILLER_0_20_146
*393 FILLER_0_20_157
*394 FILLER_0_20_166
*395 FILLER_0_20_174
*396 FILLER_0_20_183
*397 FILLER_0_20_187
*398 FILLER_0_20_2
*399 FILLER_0_20_20
*400 FILLER_0_20_24
*401 FILLER_0_20_26
*402 FILLER_0_20_31
*403 FILLER_0_20_37
*404 FILLER_0_20_57
*405 FILLER_0_20_73
*406 FILLER_0_20_80
*407 FILLER_0_20_88
*408 FILLER_0_20_95
*409 FILLER_0_21_101
*410 FILLER_0_21_104
*411 FILLER_0_21_11
*412 FILLER_0_21_111
*413 FILLER_0_21_119
*414 FILLER_0_21_123
*415 FILLER_0_21_131
*416 FILLER_0_21_135
*417 FILLER_0_21_138
*418 FILLER_0_21_142
*419 FILLER_0_21_144
*420 FILLER_0_21_151
*421 FILLER_0_21_153
*422 FILLER_0_21_158
*423 FILLER_0_21_162
*424 FILLER_0_21_178
*425 FILLER_0_21_19
*426 FILLER_0_21_2
*427 FILLER_0_21_23
*428 FILLER_0_21_31
*429 FILLER_0_21_33
*430 FILLER_0_21_36
*431 FILLER_0_21_4
*432 FILLER_0_21_44
*433 FILLER_0_21_51
*434 FILLER_0_21_67
*435 FILLER_0_21_76
*436 FILLER_0_21_84
*437 FILLER_0_21_91
*438 FILLER_0_21_99
*439 FILLER_0_2_101
*440 FILLER_0_2_107
*441 FILLER_0_2_171
*442 FILLER_0_2_177
*443 FILLER_0_2_179
*444 FILLER_0_2_2
*445 FILLER_0_2_34
*446 FILLER_0_2_37
*447 FILLER_0_3_123
*448 FILLER_0_3_139
*449 FILLER_0_3_142
*450 FILLER_0_3_144
*451 FILLER_0_3_151
*452 FILLER_0_3_155
*453 FILLER_0_3_187
*454 FILLER_0_3_2
*455 FILLER_0_3_66
*456 FILLER_0_3_72
*457 FILLER_0_3_82
*458 FILLER_0_3_84
*459 FILLER_0_3_91
*460 FILLER_0_4_103
*461 FILLER_0_4_107
*462 FILLER_0_4_123
*463 FILLER_0_4_133
*464 FILLER_0_4_141
*465 FILLER_0_4_145
*466 FILLER_0_4_150
*467 FILLER_0_4_166
*468 FILLER_0_4_174
*469 FILLER_0_4_18
*470 FILLER_0_4_183
*471 FILLER_0_4_187
*472 FILLER_0_4_2
*473 FILLER_0_4_26
*474 FILLER_0_4_28
*475 FILLER_0_4_43
*476 FILLER_0_4_59
*477 FILLER_0_4_67
*478 FILLER_0_4_88
*479 FILLER_0_4_95
*480 FILLER_0_5_105
*481 FILLER_0_5_113
*482 FILLER_0_5_117
*483 FILLER_0_5_119
*484 FILLER_0_5_126
*485 FILLER_0_5_134
*486 FILLER_0_5_138
*487 FILLER_0_5_142
*488 FILLER_0_5_146
*489 FILLER_0_5_154
*490 FILLER_0_5_170
*491 FILLER_0_5_18
*492 FILLER_0_5_2
*493 FILLER_0_5_26
*494 FILLER_0_5_36
*495 FILLER_0_5_40
*496 FILLER_0_5_56
*497 FILLER_0_5_64
*498 FILLER_0_5_68
*499 FILLER_0_5_89
*500 FILLER_0_6_102
*501 FILLER_0_6_104
*502 FILLER_0_6_107
*503 FILLER_0_6_111
*504 FILLER_0_6_113
*505 FILLER_0_6_120
*506 FILLER_0_6_137
*507 FILLER_0_6_153
*508 FILLER_0_6_173
*509 FILLER_0_6_18
*510 FILLER_0_6_181
*511 FILLER_0_6_2
*512 FILLER_0_6_22
*513 FILLER_0_6_24
*514 FILLER_0_6_47
*515 FILLER_0_6_63
*516 FILLER_0_6_71
*517 FILLER_0_6_94
*518 FILLER_0_7_119
*519 FILLER_0_7_135
*520 FILLER_0_7_139
*521 FILLER_0_7_142
*522 FILLER_0_7_158
*523 FILLER_0_7_168
*524 FILLER_0_7_184
*525 FILLER_0_7_2
*526 FILLER_0_7_35
*527 FILLER_0_7_48
*528 FILLER_0_7_64
*529 FILLER_0_7_68
*530 FILLER_0_7_72
*531 FILLER_0_7_74
*532 FILLER_0_7_87
*533 FILLER_0_8_10
*534 FILLER_0_8_107
*535 FILLER_0_8_139
*536 FILLER_0_8_155
*537 FILLER_0_8_177
*538 FILLER_0_8_185
*539 FILLER_0_8_187
*540 FILLER_0_8_2
*541 FILLER_0_8_30
*542 FILLER_0_8_43
*543 FILLER_0_8_59
*544 FILLER_0_8_67
*545 FILLER_0_8_69
*546 FILLER_0_8_81
*547 FILLER_0_8_97
*548 FILLER_0_9_10
*549 FILLER_0_9_108
*550 FILLER_0_9_112
*551 FILLER_0_9_128
*552 FILLER_0_9_136
*553 FILLER_0_9_142
*554 FILLER_0_9_158
*555 FILLER_0_9_162
*556 FILLER_0_9_168
*557 FILLER_0_9_176
*558 FILLER_0_9_2
*559 FILLER_0_9_21
*560 FILLER_0_9_53
*561 FILLER_0_9_69
*562 FILLER_0_9_76
*563 PHY_EDGE_ROW_0_Left_22
*564 PHY_EDGE_ROW_0_Right_0
*565 PHY_EDGE_ROW_10_Left_32
*566 PHY_EDGE_ROW_10_Right_10
*567 PHY_EDGE_ROW_11_Left_33
*568 PHY_EDGE_ROW_11_Right_11
*569 PHY_EDGE_ROW_12_Left_34
*570 PHY_EDGE_ROW_12_Right_12
*571 PHY_EDGE_ROW_13_Left_35
*572 PHY_EDGE_ROW_13_Right_13
*573 PHY_EDGE_ROW_14_Left_36
*574 PHY_EDGE_ROW_14_Right_14
*575 PHY_EDGE_ROW_15_Left_37
*576 PHY_EDGE_ROW_15_Right_15
*577 PHY_EDGE_ROW_16_Left_38
*578 PHY_EDGE_ROW_16_Right_16
*579 PHY_EDGE_ROW_17_Left_39
*580 PHY_EDGE_ROW_17_Right_17
*581 PHY_EDGE_ROW_18_Left_40
*582 PHY_EDGE_ROW_18_Right_18
*583 PHY_EDGE_ROW_19_Left_41
*584 PHY_EDGE_ROW_19_Right_19
*585 PHY_EDGE_ROW_1_Left_23
*586 PHY_EDGE_ROW_1_Right_1
*587 PHY_EDGE_ROW_20_Left_42
*588 PHY_EDGE_ROW_20_Right_20
*589 PHY_EDGE_ROW_21_Left_43
*590 PHY_EDGE_ROW_21_Right_21
*591 PHY_EDGE_ROW_2_Left_24
*592 PHY_EDGE_ROW_2_Right_2
*593 PHY_EDGE_ROW_3_Left_25
*594 PHY_EDGE_ROW_3_Right_3
*595 PHY_EDGE_ROW_4_Left_26
*596 PHY_EDGE_ROW_4_Right_4
*597 PHY_EDGE_ROW_5_Left_27
*598 PHY_EDGE_ROW_5_Right_5
*599 PHY_EDGE_ROW_6_Left_28
*600 PHY_EDGE_ROW_6_Right_6
*601 PHY_EDGE_ROW_7_Left_29
*602 PHY_EDGE_ROW_7_Right_7
*603 PHY_EDGE_ROW_8_Left_30
*604 PHY_EDGE_ROW_8_Right_8
*605 PHY_EDGE_ROW_9_Left_31
*606 PHY_EDGE_ROW_9_Right_9
*607 TAP_TAPCELL_ROW_0_44
*608 TAP_TAPCELL_ROW_0_45
*609 TAP_TAPCELL_ROW_0_46
*610 TAP_TAPCELL_ROW_0_47
*611 TAP_TAPCELL_ROW_0_48
*612 TAP_TAPCELL_ROW_10_71
*613 TAP_TAPCELL_ROW_10_72
*614 TAP_TAPCELL_ROW_10_73
*615 TAP_TAPCELL_ROW_11_74
*616 TAP_TAPCELL_ROW_11_75
*617 TAP_TAPCELL_ROW_12_76
*618 TAP_TAPCELL_ROW_12_77
*619 TAP_TAPCELL_ROW_12_78
*620 TAP_TAPCELL_ROW_13_79
*621 TAP_TAPCELL_ROW_13_80
*622 TAP_TAPCELL_ROW_14_81
*623 TAP_TAPCELL_ROW_14_82
*624 TAP_TAPCELL_ROW_14_83
*625 TAP_TAPCELL_ROW_15_84
*626 TAP_TAPCELL_ROW_15_85
*627 TAP_TAPCELL_ROW_16_86
*628 TAP_TAPCELL_ROW_16_87
*629 TAP_TAPCELL_ROW_16_88
*630 TAP_TAPCELL_ROW_17_89
*631 TAP_TAPCELL_ROW_17_90
*632 TAP_TAPCELL_ROW_18_91
*633 TAP_TAPCELL_ROW_18_92
*634 TAP_TAPCELL_ROW_18_93
*635 TAP_TAPCELL_ROW_19_94
*636 TAP_TAPCELL_ROW_19_95
*637 TAP_TAPCELL_ROW_1_49
*638 TAP_TAPCELL_ROW_1_50
*639 TAP_TAPCELL_ROW_20_96
*640 TAP_TAPCELL_ROW_20_97
*641 TAP_TAPCELL_ROW_20_98
*642 TAP_TAPCELL_ROW_21_100
*643 TAP_TAPCELL_ROW_21_101
*644 TAP_TAPCELL_ROW_21_102
*645 TAP_TAPCELL_ROW_21_103
*646 TAP_TAPCELL_ROW_21_99
*647 TAP_TAPCELL_ROW_2_51
*648 TAP_TAPCELL_ROW_2_52
*649 TAP_TAPCELL_ROW_2_53
*650 TAP_TAPCELL_ROW_3_54
*651 TAP_TAPCELL_ROW_3_55
*652 TAP_TAPCELL_ROW_4_56
*653 TAP_TAPCELL_ROW_4_57
*654 TAP_TAPCELL_ROW_4_58
*655 TAP_TAPCELL_ROW_5_59
*656 TAP_TAPCELL_ROW_5_60
*657 TAP_TAPCELL_ROW_6_61
*658 TAP_TAPCELL_ROW_6_62
*659 TAP_TAPCELL_ROW_6_63
*660 TAP_TAPCELL_ROW_7_64
*661 TAP_TAPCELL_ROW_7_65
*662 TAP_TAPCELL_ROW_8_66
*663 TAP_TAPCELL_ROW_8_67
*664 TAP_TAPCELL_ROW_8_68
*665 TAP_TAPCELL_ROW_9_69
*666 TAP_TAPCELL_ROW_9_70
*667 _100_
*668 _101_
*669 _102_
*670 _103_
*671 _104_
*672 _105_
*673 _106_
*674 _107_
*675 _108_
*676 _109_
*677 _110_
*678 _111_
*679 _112_
*680 _113_
*681 _114_
*682 _115_
*683 _116_
*684 _117_
*685 _118_
*686 _119_
*687 _120_
*688 _121_
*689 _122_
*690 _123_
*691 _124_
*692 _125_
*693 _126_
*694 _127_
*695 _128_
*696 _129_
*697 _130_
*698 _131_
*699 _132_
*700 _133_
*701 _134_
*702 _135_
*703 _136_
*704 _137_
*705 _138_
*706 _139_
*707 _140_
*708 _141_
*709 _142_
*710 _143_
*711 _144_
*712 _145_
*713 _146_
*714 _147_
*715 _148_
*716 _149_
*717 _150_
*718 _151_
*719 _152_
*720 _153_
*721 _154_
*722 _155_
*723 _156_
*724 _157_
*725 _158_
*726 _159_
*727 _160_
*728 _161_
*729 _162_
*730 _163_
*731 _164_
*732 _165_
*733 _166_
*734 _167_
*735 _168_
*736 _169_
*737 _170_
*738 _171_
*739 _172_
*740 _173_
*741 _174_
*742 _175_
*743 _176_
*744 _177_
*745 _178_
*746 _179_
*747 _180_
*748 _181_
*749 _182_
*750 _183_
*751 _184_
*752 _185_
*753 _186_
*754 _187_
*755 _188_
*756 _189_
*757 _190_
*758 _191_
*759 _192_
*760 _193_
*761 _194_
*762 _195_
*763 _196_
*764 _197_
*765 _198_
*766 _199_
*767 _200_
*768 _201_
*769 _202_
*770 _203_
*771 _204_
*772 _205_
*773 _206_
*774 _207_
*775 _208_
*776 _209_
*777 _210_
*778 _211_
*779 _212_
*780 _213_
*781 _214_
*782 _215_
*783 _216_
*784 _217_
*785 _218_
*786 _219_
*787 _220_
*788 _221_
*789 _222_
*790 _223_
*791 _224_
*792 _225_
*793 _226_
*794 _227_
*795 _228_
*796 _229_
*797 _230_
*798 _231_
*799 _232_
*800 _233_
*801 _234_
*802 _235_
*803 _236_
*804 _237_
*805 _238_
*806 _239_
*807 input1
*808 input2
*809 input3
*810 input4
*811 input5
*812 input6
*813 output10
*814 output11
*815 output12
*816 output13
*817 output14
*818 output15
*819 output16
*820 output17
*821 output7
*822 output8
*823 output9

*PORTS
clk I
io_in[0] I
io_in[1] I
io_in[2] I
io_in[3] I
io_in[4] I
io_oeb O
io_out[0] O
io_out[1] O
io_out[2] O
io_out[3] O
io_out[4] O
io_out[5] O
io_out[6] O
io_out[7] O
io_out[8] O
io_out[9] O
rst_n I

*D_NET *1 0.025622
*CONN
*P clk I
*I *174:I I *D gf180mcu_fd_sc_mcu7t5v0__antenna
*I *757:I I *D gf180mcu_fd_sc_mcu7t5v0__buf_1
*I *168:I I *D gf180mcu_fd_sc_mcu7t5v0__antenna
*I *674:I I *D gf180mcu_fd_sc_mcu7t5v0__buf_1
*I *694:I I *D gf180mcu_fd_sc_mcu7t5v0__clkinv_1
*I *169:I I *D gf180mcu_fd_sc_mcu7t5v0__antenna
*I *723:A1 I *D gf180mcu_fd_sc_mcu7t5v0__nand3_1
*I *170:I I *D gf180mcu_fd_sc_mcu7t5v0__antenna
*CAP
1 clk 0.00133641
2 *174:I 0
3 *757:I 4.23759e-05
4 *168:I 0
5 *674:I 9.16984e-05
6 *694:I 5.00072e-05
7 *169:I 0
8 *723:A1 0
9 *170:I 0.000268262
10 *1:59 0.000346661
11 *1:35 0.00329222
12 *1:19 0.00286779
13 *1:17 0.000534958
14 *1:11 0.000661888
15 *1:9 0.00146975
16 *170:I *704:I 0.000475738
17 *170:I *723:A3 5.01413e-06
18 *170:I *803:A2 0
19 *674:I *112:8 1.07369e-05
20 *694:I *804:I 0.000116884
21 *757:I *77:6 5.13977e-05
22 *1:9 *18:9 0.000419265
23 *1:9 *163:10 0.000283786
24 *1:17 *163:10 0.00220234
25 *1:19 *112:36 5.47866e-05
26 *1:19 *163:10 0.000414683
27 *1:35 *723:A2 0.000208127
28 *1:35 *735:B 0
29 *1:35 *753:A3 9.02895e-05
30 *1:35 *803:A1 3.42651e-05
31 *1:35 *29:38 0.000184361
32 *1:35 *44:12 0.00035533
33 *1:35 *55:10 0.000104752
34 *1:35 *60:18 0
35 *1:35 *112:10 0.000297868
36 *1:35 *112:36 1.06742e-05
37 *1:35 *139:8 0.000340443
38 *1:35 *139:10 0.000920437
39 *1:35 *163:10 0.00489038
40 *1:35 *163:12 0.000701122
41 *1:35 *163:16 0.00037585
42 *1:59 *723:A2 1.07369e-05
43 *1:59 *804:I 0.000666223
44 *1:59 *46:14 0.00143453
*RES
1 clk *1:9 15.68 
2 *1:9 *1:11 1.144 
3 *1:11 *1:17 10.948 
4 *1:17 *1:19 1.144 
5 *1:19 *1:35 35.804 
6 *1:35 *170:I 15.372 
7 *1:35 *723:A1 4.5 
8 *1:35 *1:59 5.304 
9 *1:59 *169:I 4.5 
10 *1:59 *694:I 5.228 
11 *1:19 *674:I 9.52 
12 *1:17 *168:I 9 
13 *1:11 *757:I 5.02 
14 *1:9 *174:I 4.5 
*END

*D_NET *2 0.00109597
*CONN
*P io_in[0] I
*I *807:I I *D gf180mcu_fd_sc_mcu7t5v0__clkbuf_1
*I *179:I I *D gf180mcu_fd_sc_mcu7t5v0__antenna
*CAP
1 io_in[0] 0.000311406
2 *807:I 0.000231262
3 *179:I 0
4 *2:7 0.000542669
5 *807:I *77:6 0
6 *807:I *77:27 1.06333e-05
7 *2:7 *770:C 0
*RES
1 io_in[0] *2:7 6.424 
2 *2:7 *179:I 4.5 
3 *2:7 *807:I 5.852 
*END

*D_NET *3 0.00125613
*CONN
*P io_in[1] I
*I *808:I I *D gf180mcu_fd_sc_mcu7t5v0__clkbuf_1
*I *180:I I *D gf180mcu_fd_sc_mcu7t5v0__antenna
*CAP
1 io_in[1] 0.000333082
2 *808:I 5.02937e-05
3 *180:I 0.000149101
4 *3:5 0.000532477
5 *180:I *707:C 5.28488e-05
6 *180:I *77:27 0.000122244
7 *808:I *770:C 1.06067e-05
8 *808:I *77:27 5.47431e-06
*RES
1 io_in[1] *3:5 1.924 
2 *3:5 *180:I 10.456 
3 *3:5 *808:I 9.52 
*END

*D_NET *4 0.00144118
*CONN
*P io_in[2] I
*I *809:I I *D gf180mcu_fd_sc_mcu7t5v0__clkbuf_1
*I *181:I I *D gf180mcu_fd_sc_mcu7t5v0__antenna
*CAP
1 io_in[2] 0.000440974
2 *809:I 2.80111e-05
3 *181:I 0.000182368
4 *4:9 0.000651353
5 *809:I *760:C 3.10787e-05
6 *809:I *770:C 5.13239e-06
7 *4:9 *760:C 9.3396e-05
8 *4:9 *770:C 8.86678e-06
*RES
1 io_in[2] *4:9 7.152 
2 *4:9 *181:I 14.644 
3 *4:9 *809:I 4.812 
*END

*D_NET *5 0.00111713
*CONN
*P io_in[3] I
*I *182:I I *D gf180mcu_fd_sc_mcu7t5v0__antenna
*I *810:I I *D gf180mcu_fd_sc_mcu7t5v0__clkbuf_1
*CAP
1 io_in[3] 0.000303746
2 *182:I 0
3 *810:I 0.000181847
4 *5:7 0.000485594
5 *810:I *770:C 2.93608e-05
6 *810:I *799:A1 0.000116578
*RES
1 io_in[3] *5:7 6.216 
2 *5:7 *810:I 6.164 
3 *5:7 *182:I 4.5 
*END

*D_NET *6 0.00138718
*CONN
*P io_in[4] I
*I *811:I I *D gf180mcu_fd_sc_mcu7t5v0__clkbuf_1
*I *183:I I *D gf180mcu_fd_sc_mcu7t5v0__antenna
*CAP
1 io_in[4] 0.000517371
2 *811:I 0
3 *183:I 0.000156444
4 *6:9 0.000673815
5 *183:I *158:51 0
6 *6:9 *770:C 2.38773e-05
7 *6:9 *36:37 1.5675e-05
*RES
1 io_in[4] *6:9 7.776 
2 *6:9 *183:I 14.644 
3 *6:9 *811:I 4.5 
*END

*D_NET *7 0.00251913
*CONN
*P io_oeb O
*I *821:Z O *D gf180mcu_fd_sc_mcu7t5v0__buf_1
*CAP
1 io_oeb 0.00108562
2 *821:Z 0.00108562
3 io_oeb io_out[8] 0.000347896
*RES
1 *821:Z io_oeb 18.828 
*END

*D_NET *8 0.00157408
*CONN
*P io_out[0] O
*I *822:Z O *D gf180mcu_fd_sc_mcu7t5v0__buf_1
*CAP
1 io_out[0] 0.000787039
2 *822:Z 0.000787039
*RES
1 *822:Z io_out[0] 11 
*END

*D_NET *9 0.00157408
*CONN
*P io_out[1] O
*I *823:Z O *D gf180mcu_fd_sc_mcu7t5v0__buf_1
*CAP
1 io_out[1] 0.000787039
2 *823:Z 0.000787039
*RES
1 *823:Z io_out[1] 11 
*END

*D_NET *10 0.00161565
*CONN
*P io_out[2] O
*I *813:Z O *D gf180mcu_fd_sc_mcu7t5v0__buf_1
*CAP
1 io_out[2] 0.000807826
2 *813:Z 0.000807826
3 io_out[2] *774:A2 0
4 io_out[2] *126:6 0
*RES
1 *813:Z io_out[2] 11 
*END

*D_NET *11 0.00191182
*CONN
*P io_out[3] O
*I *814:Z O *D gf180mcu_fd_sc_mcu7t5v0__buf_1
*CAP
1 io_out[3] 0.000955912
2 *814:Z 0.000955912
*RES
1 *814:Z io_out[3] 13.08 
*END

*D_NET *12 0.00157408
*CONN
*P io_out[4] O
*I *815:Z O *D gf180mcu_fd_sc_mcu7t5v0__buf_1
*CAP
1 io_out[4] 0.000787039
2 *815:Z 0.000787039
*RES
1 *815:Z io_out[4] 11 
*END

*D_NET *13 0.00157408
*CONN
*P io_out[5] O
*I *816:Z O *D gf180mcu_fd_sc_mcu7t5v0__buf_1
*CAP
1 io_out[5] 0.000787039
2 *816:Z 0.000787039
*RES
1 *816:Z io_out[5] 11 
*END

*D_NET *14 0.00157408
*CONN
*P io_out[6] O
*I *817:Z O *D gf180mcu_fd_sc_mcu7t5v0__buf_1
*CAP
1 io_out[6] 0.000787039
2 *817:Z 0.000787039
3 io_out[6] *817:I 0
*RES
1 *817:Z io_out[6] 11 
*END

*D_NET *15 0.00157408
*CONN
*P io_out[7] O
*I *818:Z O *D gf180mcu_fd_sc_mcu7t5v0__buf_1
*CAP
1 io_out[7] 0.000787039
2 *818:Z 0.000787039
*RES
1 *818:Z io_out[7] 11 
*END

*D_NET *16 0.00229156
*CONN
*P io_out[8] O
*I *819:Z O *D gf180mcu_fd_sc_mcu7t5v0__buf_1
*CAP
1 io_out[8] 0.000958133
2 *819:Z 0.000958133
3 io_out[8] *797:A1 0
4 io_out[8] *821:I 2.73939e-05
5 io_out[8] *158:51 0
6 io_oeb io_out[8] 0.000347896
*RES
1 *819:Z io_out[8] 21.352 
*END

*D_NET *17 0.00161483
*CONN
*P io_out[9] O
*I *820:Z O *D gf180mcu_fd_sc_mcu7t5v0__buf_1
*CAP
1 io_out[9] 0.000807414
2 *820:Z 0.000807414
*RES
1 *820:Z io_out[9] 11 
*END

*D_NET *18 0.00161798
*CONN
*P rst_n I
*I *812:I I *D gf180mcu_fd_sc_mcu7t5v0__buf_1
*I *184:I I *D gf180mcu_fd_sc_mcu7t5v0__antenna
*CAP
1 rst_n 0.000421638
2 *812:I 0
3 *184:I 0.000177719
4 *18:9 0.000599357
5 *184:I *163:10 0
6 *1:9 *18:9 0.000419265
*RES
1 rst_n *18:9 7.568 
2 *18:9 *184:I 14.644 
3 *18:9 *812:I 4.5 
*END

*D_NET *21 0.0048513
*CONN
*I *776:A4 I *D gf180mcu_fd_sc_mcu7t5v0__nor4_1
*I *703:A4 I *D gf180mcu_fd_sc_mcu7t5v0__nor4_1
*I *686:B I *D gf180mcu_fd_sc_mcu7t5v0__aoi21_1
*I *685:ZN O *D gf180mcu_fd_sc_mcu7t5v0__nor3_1
*CAP
1 *776:A4 0.000134407
2 *703:A4 0.000162986
3 *686:B 3.31324e-05
4 *685:ZN 0.00021188
5 *21:17 0.00121968
6 *21:8 0.0011673
7 *686:B *685:A3 7.87395e-06
8 *686:B *113:23 3.18325e-05
9 *703:A4 *748:A3 0.000144093
10 *703:A4 *776:A1 0.000118543
11 *703:A4 *777:I 2.39077e-05
12 *703:A4 *23:14 3.3698e-05
13 *703:A4 *23:29 4.07478e-05
14 *776:A4 *776:A1 2.47364e-05
15 *776:A4 *776:A3 0.000194511
16 *776:A4 *777:I 4.35631e-05
17 *776:A4 *108:33 4.16649e-05
18 *21:8 *117:32 6.8159e-05
19 *21:8 *119:19 0
20 *21:8 *120:8 6.05819e-05
21 *21:17 *678:A1 7.5092e-05
22 *21:17 *678:A2 0.000139043
23 *21:17 *690:I 0.000113016
24 *21:17 *748:A3 0
25 *21:17 *776:A3 0.000126395
26 *21:17 *23:8 0.000103624
27 *21:17 *24:12 8.16884e-06
28 *21:17 *113:23 0.000522659
*RES
1 *685:ZN *21:8 6.476 
2 *21:8 *686:B 4.916 
3 *21:8 *21:17 8.112 
4 *21:17 *703:A4 6.372 
5 *21:17 *776:A4 6.268 
*END

*D_NET *22 0.00714859
*CONN
*I *741:C I *D gf180mcu_fd_sc_mcu7t5v0__aoi211_1
*I *766:A2 I *D gf180mcu_fd_sc_mcu7t5v0__or3_1
*I *688:I I *D gf180mcu_fd_sc_mcu7t5v0__buf_1
*I *748:A2 I *D gf180mcu_fd_sc_mcu7t5v0__nor3_1
*I *687:Z O *D gf180mcu_fd_sc_mcu7t5v0__buf_1
*CAP
1 *741:C 3.59317e-05
2 *766:A2 0.000325752
3 *688:I 0
4 *748:A2 2.91614e-05
5 *687:Z 0.000124728
6 *22:21 0.000447556
7 *22:10 0.000306804
8 *22:6 0.000316498
9 *741:C *741:A1 6.18411e-06
10 *741:C *749:B 3.4596e-05
11 *748:A2 *678:B 2.38773e-05
12 *748:A2 *749:B 1.78817e-06
13 *766:A2 *673:A2 0.000497696
14 *766:A2 *689:A3 0.000438808
15 *766:A2 *690:I 0.000323631
16 *766:A2 *700:I 3.22108e-05
17 *766:A2 *32:10 0.000190922
18 *766:A2 *111:23 7.22679e-05
19 *766:A2 *120:18 0.000155877
20 *766:A2 *123:6 0.000125251
21 *766:A2 *128:14 0.00120152
22 *22:6 *749:B 0.000316249
23 *22:10 *24:12 0.000152961
24 *22:10 *128:14 0.000469568
25 *22:21 *690:I 0.000189954
26 *22:21 *24:12 0.000159365
27 *22:21 *128:14 0.00111056
28 *22:21 *136:8 5.88727e-05
*RES
1 *687:Z *22:6 5.436 
2 *22:6 *22:10 5.852 
3 *22:10 *748:A2 9.312 
4 *22:10 *22:21 3.016 
5 *22:21 *688:I 9 
6 *22:21 *766:A2 15.448 
7 *22:6 *741:C 4.812 
*END

*D_NET *23 0.00935169
*CONN
*I *689:A2 I *D gf180mcu_fd_sc_mcu7t5v0__nor3_1
*I *778:A2 I *D gf180mcu_fd_sc_mcu7t5v0__nor3_1
*I *718:A3 I *D gf180mcu_fd_sc_mcu7t5v0__nor4_1
*I *703:A2 I *D gf180mcu_fd_sc_mcu7t5v0__nor4_1
*I *688:Z O *D gf180mcu_fd_sc_mcu7t5v0__buf_1
*CAP
1 *689:A2 0.000274794
2 *778:A2 0.000105194
3 *718:A3 0.000617297
4 *703:A2 3.67086e-05
5 *688:Z 7.77671e-05
6 *23:29 0.00130463
7 *23:14 0.00100981
8 *23:8 0.000743528
9 *689:A2 *673:A1 7.75016e-06
10 *689:A2 *678:A1 5.65788e-06
11 *689:A2 *689:A1 3.15856e-05
12 *689:A2 *690:I 7.18144e-05
13 *689:A2 *776:A3 4.17589e-06
14 *689:A2 *113:42 7.25459e-05
15 *689:A2 *120:18 9.0064e-06
16 *689:A2 *136:8 0.000641735
17 *703:A2 *703:A3 1.71326e-05
18 *718:A3 *680:A1 8.38379e-05
19 *718:A3 *799:A3 0
20 *718:A3 *116:29 0
21 *718:A3 *116:46 0.00128273
22 *718:A3 *137:16 1.11474e-05
23 *778:A2 *680:A3 1.71326e-05
24 *778:A2 *717:A2 8.21146e-06
25 *778:A2 *777:I 0
26 *23:8 *113:23 0.000317509
27 *23:14 *748:A1 9.94488e-05
28 *23:14 *748:A3 0.000339092
29 *23:14 *776:A3 9.5778e-05
30 *23:14 *115:30 3.50308e-05
31 *23:14 *136:8 0.000904691
32 *23:29 *703:A3 0.000102417
33 *23:29 *717:A2 0
34 *23:29 *748:A1 0
35 *23:29 *776:A1 3.50983e-05
36 *23:29 *777:I 0
37 *23:29 *778:A3 0.000698066
38 *23:29 *116:29 7.15269e-06
39 *23:29 *116:46 1.70957e-06
40 *23:29 *137:16 0.000103438
41 *703:A4 *23:14 3.3698e-05
42 *703:A4 *23:29 4.07478e-05
43 *21:17 *23:8 0.000103624
*RES
1 *688:Z *23:8 9.936 
2 *23:8 *23:14 9.284 
3 *23:14 *703:A2 4.812 
4 *23:14 *23:29 5.2 
5 *23:29 *718:A3 18.388 
6 *23:29 *778:A2 5.644 
7 *23:8 *689:A2 11.704 
*END

*D_NET *24 0.00771435
*CONN
*I *691:A3 I *D gf180mcu_fd_sc_mcu7t5v0__nor3_1
*I *692:A2 I *D gf180mcu_fd_sc_mcu7t5v0__nor3_1
*I *752:A2 I *D gf180mcu_fd_sc_mcu7t5v0__nor3_1
*I *741:A1 I *D gf180mcu_fd_sc_mcu7t5v0__aoi211_1
*I *690:Z O *D gf180mcu_fd_sc_mcu7t5v0__buf_1
*CAP
1 *691:A3 5.23913e-05
2 *692:A2 0.000312475
3 *752:A2 0
4 *741:A1 4.89448e-05
5 *690:Z 0.000210704
6 *24:31 0.000570669
7 *24:25 0.000481218
8 *24:12 0.000430282
9 *691:A3 *691:A1 1.03283e-05
10 *692:A2 *691:A1 2.76494e-05
11 *692:A2 *704:I 0.000758222
12 *692:A2 *50:34 8.078e-05
13 *692:A2 *137:28 4.6236e-05
14 *692:A2 *163:66 0.000245014
15 *24:12 *678:A1 0.000185295
16 *24:12 *690:I 2.38656e-05
17 *24:12 *128:14 0.000138301
18 *24:12 *136:8 0.00128422
19 *24:25 *741:B 9.7618e-05
20 *24:25 *124:21 0.000189551
21 *24:25 *136:8 0.000823476
22 *24:31 *691:A1 3.75554e-06
23 *24:31 *752:A3 0.000178559
24 *24:31 *124:21 0.000115911
25 *24:31 *136:8 0.000627805
26 *24:31 *136:10 0.000116466
27 *24:31 *163:66 0.000327933
28 *741:C *741:A1 6.18411e-06
29 *21:17 *24:12 8.16884e-06
30 *22:10 *24:12 0.000152961
31 *22:21 *24:12 0.000159365
*RES
1 *690:Z *24:12 17.452 
2 *24:12 *741:A1 4.812 
3 *24:12 *24:25 7.204 
4 *24:25 *24:31 7.412 
5 *24:31 *752:A2 4.5 
6 *24:31 *692:A2 17.348 
7 *24:25 *691:A3 9.312 
*END

*D_NET *25 0.00884876
*CONN
*I *693:A1 I *D gf180mcu_fd_sc_mcu7t5v0__or2_1
*I *727:A2 I *D gf180mcu_fd_sc_mcu7t5v0__aoi22_1
*I *743:B I *D gf180mcu_fd_sc_mcu7t5v0__oai31_1
*I *691:ZN O *D gf180mcu_fd_sc_mcu7t5v0__nor3_1
*CAP
1 *693:A1 0.000730572
2 *727:A2 0.000275458
3 *743:B 0.000196445
4 *691:ZN 0.0011796
5 *25:31 0.00167622
6 *25:10 0.00204624
7 *693:A1 *727:B1 0
8 *693:A1 *729:B 0.000159037
9 *693:A1 *767:A1 0.000194522
10 *693:A1 *767:A2 3.10673e-05
11 *693:A1 *29:38 0.000193782
12 *693:A1 *39:34 0
13 *693:A1 *50:34 3.72454e-05
14 *727:A2 *727:A1 0.000155321
15 *727:A2 *29:38 6.3668e-05
16 *743:B *743:A1 4.7658e-05
17 *743:B *44:12 2.37836e-06
18 *743:B *56:12 0
19 *25:10 *691:A2 0.000252404
20 *25:10 *742:B2 0
21 *25:10 *743:A1 1.71726e-05
22 *25:10 *751:A1 0
23 *25:10 *119:38 7.82526e-05
24 *25:10 *128:20 0
25 *25:10 *163:66 0
26 *25:31 *677:I 0.000265548
27 *25:31 *721:I 0.000260055
28 *25:31 *723:A3 0.000583046
29 *25:31 *735:B 0.000298249
30 *25:31 *767:A2 4.91851e-05
31 *25:31 *29:38 5.564e-05
*RES
1 *691:ZN *25:10 16.28 
2 *25:10 *743:B 10.352 
3 *25:10 *25:31 11.26 
4 *25:31 *727:A2 7.204 
5 *25:31 *693:A1 19.636 
*END

*D_NET *26 0.00323757
*CONN
*I *693:A2 I *D gf180mcu_fd_sc_mcu7t5v0__or2_1
*I *727:B1 I *D gf180mcu_fd_sc_mcu7t5v0__aoi22_1
*I *692:ZN O *D gf180mcu_fd_sc_mcu7t5v0__nor3_1
*CAP
1 *693:A2 0.000189403
2 *727:B1 0.000468717
3 *692:ZN 0.00045288
4 *26:8 0.001111
5 *693:A2 *729:B 7.09376e-05
6 *693:A2 *163:66 9.56769e-05
7 *727:B1 *767:A1 1.13641e-05
8 *727:B1 *768:A2 0.00025151
9 *727:B1 *29:38 0.000169899
10 *727:B1 *138:30 7.17578e-06
11 *26:8 *692:A3 5.47469e-05
12 *26:8 *729:B 1.78817e-06
13 *26:8 *50:26 0.000172091
14 *26:8 *50:34 6.24782e-05
15 *26:8 *61:25 3.3698e-05
16 *26:8 *137:28 4.32085e-06
17 *26:8 *163:66 7.98796e-05
18 *693:A1 *727:B1 0
*RES
1 *692:ZN *26:8 8.244 
2 *26:8 *727:B1 17.348 
3 *26:8 *693:A2 6.372 
*END

*D_NET *27 0.00250103
*CONN
*I *697:A2 I *D gf180mcu_fd_sc_mcu7t5v0__nand3_1
*I *693:Z O *D gf180mcu_fd_sc_mcu7t5v0__or2_1
*CAP
1 *697:A2 0.000686282
2 *693:Z 0.000686282
3 *697:A2 *696:A2 4.09292e-05
4 *697:A2 *697:A3 0.000145688
5 *697:A2 *784:A1 7.16355e-05
6 *697:A2 *784:A3 0.000557671
7 *697:A2 *804:I 0
8 *697:A2 *51:20 8.16884e-06
9 *697:A2 *51:33 0.000191344
10 *697:A2 *163:66 0
11 *697:A2 *164:6 0.000113027
*RES
1 *693:Z *697:A2 15.24 
*END

*D_NET *28 0.00727751
*CONN
*I *696:A1 I *D gf180mcu_fd_sc_mcu7t5v0__nor2_1
*I *713:I I *D gf180mcu_fd_sc_mcu7t5v0__clkbuf_1
*I *788:A1 I *D gf180mcu_fd_sc_mcu7t5v0__or2_1
*I *795:B2 I *D gf180mcu_fd_sc_mcu7t5v0__oai22_1
*I *694:ZN O *D gf180mcu_fd_sc_mcu7t5v0__clkinv_1
*CAP
1 *696:A1 0.000525937
2 *713:I 0
3 *788:A1 9.66618e-05
4 *795:B2 0
5 *694:ZN 0.000113676
6 *28:16 0.00080937
7 *28:10 0.00133763
8 *28:6 0.00126454
9 *696:A1 *804:I 0
10 *696:A1 *30:10 4.23898e-06
11 *696:A1 *39:34 7.36245e-05
12 *696:A1 *46:14 6.70054e-05
13 *696:A1 *51:20 0.000116476
14 *788:A1 *788:A2 8.34358e-05
15 *788:A1 *796:B 0.000203739
16 *788:A1 *822:I 6.07595e-05
17 *788:A1 *43:27 1.57479e-05
18 *28:6 *804:I 0.000134833
19 *28:6 *46:14 6.41721e-05
20 *28:10 *790:A1 8.23267e-05
21 *28:10 *39:21 0.000134086
22 *28:10 *39:34 0.00109049
23 *28:16 *790:A1 9.11499e-05
24 *28:16 *796:B 0.000509988
25 *28:16 *822:I 0.00015244
26 *28:16 *94:20 0.000245179
*RES
1 *694:ZN *28:6 5.644 
2 *28:6 *28:10 12.508 