*SPEF "ieee 1481-1999"
*DESIGN "ue1"
*DATE "11:11:11 Fri 11 11, 1111"
*VENDOR "OpenRCX"
*PROGRAM "Parallel Extraction"
*VERSION "1.0"
*DESIGN_FLOW "NAME_SCOPE LOCAL" "PIN_CAP NONE"
*DIVIDER /
*DELIMITER :
*BUS_DELIMITER []
*T_UNIT 1 NS
*C_UNIT 1 PF
*R_UNIT 1 OHM
*L_UNIT 1 HENRY

*NAME_MAP
*1 clk
*2 io_in[0]
*3 io_in[1]
*4 io_in[2]
*5 io_in[3]
*6 io_in[4]
*7 io_oeb
*8 io_out[0]
*9 io_out[1]
*10 io_out[2]
*11 io_out[3]
*12 io_out[4]
*13 io_out[5]
*14 io_out[6]
*15 io_out[7]
*16 io_out[8]
*17 io_out[9]
*18 rst_n
*21 _000_
*22 _001_
*23 _002_
*24 _003_
*25 _004_
*26 _005_
*27 _006_
*28 _007_
*29 _008_
*30 _009_
*31 _010_
*32 _011_
*33 _012_
*34 _013_
*35 _014_
*36 _015_
*37 _016_
*38 _017_
*39 _018_
*40 _019_
*41 _020_
*42 _021_
*43 _022_
*44 _023_
*45 _024_
*46 _025_
*47 _026_
*48 _027_
*49 _028_
*50 _029_
*51 _030_
*52 _031_
*53 _032_
*54 _033_
*55 _034_
*56 _035_
*57 _036_
*58 _037_
*59 _038_
*60 _039_
*61 _040_
*62 _041_
*63 _042_
*64 _043_
*65 _044_
*66 _045_
*67 _046_
*68 _047_
*69 _048_
*70 _049_
*71 _050_
*72 _051_
*73 _052_
*74 _053_
*75 _054_
*76 _055_
*77 _056_
*78 _057_
*79 _058_
*80 _059_
*81 _060_
*82 _061_
*83 _062_
*84 _063_
*85 _064_
*86 _065_
*87 _066_
*88 _067_
*89 _068_
*90 _069_
*91 _070_
*92 _071_
*93 _072_
*94 _073_
*95 _074_
*96 _075_
*97 _076_
*98 _077_
*99 _078_
*100 _079_
*101 _080_
*102 _081_
*103 _082_
*104 _083_
*105 _084_
*106 _085_
*107 _086_
*108 _087_
*109 _088_
*110 _089_
*111 _090_
*112 _091_
*113 _092_
*114 _093_
*115 _094_
*116 _095_
*117 main\.GATES_100\.input2
*118 main\.GATES_102\.input1
*119 main\.GATES_102\.input2
*120 main\.GATES_102\.input3
*121 main\.GATES_103\.input2
*122 main\.GATES_105\.input3
*123 main\.GATES_106\.input2
*124 main\.GATES_107\.input2
*125 main\.GATES_108\.input1
*126 main\.GATES_109\.input2
*127 main\.GATES_11\.input2
*128 main\.GATES_110\.input1
*129 main\.GATES_113\.input1
*130 main\.GATES_114\.input2
*131 main\.GATES_115\.input2
*132 main\.GATES_116\.input1
*133 main\.GATES_116\.input3
*134 main\.GATES_119\.result
*135 main\.GATES_124\.input2
*136 main\.GATES_127\.result
*137 main\.GATES_132\.input1
*138 main\.GATES_15\.input3
*139 main\.GATES_16\.input1
*140 main\.GATES_18\.result
*141 main\.GATES_19\.input1
*142 main\.GATES_20\.result
*143 main\.GATES_26\.input3
*144 main\.GATES_29\.input3
*145 main\.GATES_46\.input3
*146 net1
*147 net10
*148 net11
*149 net12
*150 net13
*151 net14
*152 net15
*153 net16
*154 net17
*155 net2
*156 net3
*157 net4
*158 net5
*159 net6
*160 net7
*161 net8
*162 net9
*163 ANTENNA__098__I
*164 ANTENNA__106__A1
*165 ANTENNA__143__A1
*166 ANTENNA__155__A1
*167 ANTENNA__161__I
*168 ANTENNA__193__A1
*169 ANTENNA__215__B
*170 ANTENNA__220__B
*171 ANTENNA_input1_I
*172 ANTENNA_input2_I
*173 ANTENNA_input3_I
*174 ANTENNA_input4_I
*175 ANTENNA_input5_I
*176 ANTENNA_input6_I
*177 FILLER_0_0_104
*178 FILLER_0_0_138
*179 FILLER_0_0_172
*180 FILLER_0_0_2
*181 FILLER_0_0_36
*182 FILLER_0_0_70
*183 FILLER_0_10_103
*184 FILLER_0_10_107
*185 FILLER_0_10_127
*186 FILLER_0_10_159
*187 FILLER_0_10_163
*188 FILLER_0_10_171
*189 FILLER_0_10_177
*190 FILLER_0_10_18
*191 FILLER_0_10_185
*192 FILLER_0_10_187
*193 FILLER_0_10_2
*194 FILLER_0_10_26
*195 FILLER_0_10_32
*196 FILLER_0_10_34
*197 FILLER_0_10_37
*198 FILLER_0_10_53
*199 FILLER_0_10_61
*200 FILLER_0_10_71
*201 FILLER_0_10_83
*202 FILLER_0_10_99
*203 FILLER_0_11_10
*204 FILLER_0_11_112
*205 FILLER_0_11_128
*206 FILLER_0_11_136
*207 FILLER_0_11_14
*208 FILLER_0_11_142
*209 FILLER_0_11_168
*210 FILLER_0_11_184
*211 FILLER_0_11_2
*212 FILLER_0_11_28
*213 FILLER_0_11_32
*214 FILLER_0_11_34
*215 FILLER_0_11_39
*216 FILLER_0_11_49
*217 FILLER_0_11_53
*218 FILLER_0_11_60
*219 FILLER_0_11_68
*220 FILLER_0_11_80
*221 FILLER_0_12_101
*222 FILLER_0_12_107
*223 FILLER_0_12_121
*224 FILLER_0_12_153
*225 FILLER_0_12_157
*226 FILLER_0_12_172
*227 FILLER_0_12_174
*228 FILLER_0_12_177
*229 FILLER_0_12_185
*230 FILLER_0_12_187
*231 FILLER_0_12_2
*232 FILLER_0_12_24
*233 FILLER_0_12_32
*234 FILLER_0_12_34
*235 FILLER_0_12_41
*236 FILLER_0_12_57
*237 FILLER_0_12_59
*238 FILLER_0_12_69
*239 FILLER_0_13_10
*240 FILLER_0_13_110
*241 FILLER_0_13_131
*242 FILLER_0_13_139
*243 FILLER_0_13_14
*244 FILLER_0_13_142
*245 FILLER_0_13_174
*246 FILLER_0_13_178
*247 FILLER_0_13_2
*248 FILLER_0_13_24
*249 FILLER_0_13_56
*250 FILLER_0_13_64
*251 FILLER_0_13_68
*252 FILLER_0_13_72
*253 FILLER_0_13_94
*254 FILLER_0_14_104
*255 FILLER_0_14_107
*256 FILLER_0_14_132
*257 FILLER_0_14_148
*258 FILLER_0_14_156
*259 FILLER_0_14_158
*260 FILLER_0_14_171
*261 FILLER_0_14_177
*262 FILLER_0_14_185
*263 FILLER_0_14_187
*264 FILLER_0_14_2
*265 FILLER_0_14_24
*266 FILLER_0_14_30
*267 FILLER_0_14_34
*268 FILLER_0_14_37
*269 FILLER_0_14_53
*270 FILLER_0_14_70
*271 FILLER_0_14_78
*272 FILLER_0_15_101
*273 FILLER_0_15_109
*274 FILLER_0_15_113
*275 FILLER_0_15_115
*276 FILLER_0_15_122
*277 FILLER_0_15_138
*278 FILLER_0_15_142
*279 FILLER_0_15_158
*280 FILLER_0_15_160
*281 FILLER_0_15_177
*282 FILLER_0_15_185
*283 FILLER_0_15_187
*284 FILLER_0_15_2
*285 FILLER_0_15_28
*286 FILLER_0_15_32
*287 FILLER_0_15_48
*288 FILLER_0_15_56
*289 FILLER_0_15_66
*290 FILLER_0_15_80
*291 FILLER_0_15_88
*292 FILLER_0_15_92
*293 FILLER_0_15_94
*294 FILLER_0_16_10
*295 FILLER_0_16_102
*296 FILLER_0_16_104
*297 FILLER_0_16_115
*298 FILLER_0_16_131
*299 FILLER_0_16_139
*300 FILLER_0_16_14
*301 FILLER_0_16_143
*302 FILLER_0_16_177
*303 FILLER_0_16_185
*304 FILLER_0_16_187
*305 FILLER_0_16_2
*306 FILLER_0_16_27
*307 FILLER_0_16_37
*308 FILLER_0_16_53
*309 FILLER_0_16_61
*310 FILLER_0_16_65
*311 FILLER_0_16_67
*312 FILLER_0_16_74
*313 FILLER_0_16_90
*314 FILLER_0_16_98
*315 FILLER_0_17_100
*316 FILLER_0_17_132
*317 FILLER_0_17_142
*318 FILLER_0_17_158
*319 FILLER_0_17_162
*320 FILLER_0_17_169
*321 FILLER_0_17_177
*322 FILLER_0_17_179
*323 FILLER_0_17_18
*324 FILLER_0_17_2
*325 FILLER_0_17_26
*326 FILLER_0_17_30
*327 FILLER_0_17_43
*328 FILLER_0_17_47
*329 FILLER_0_17_55
*330 FILLER_0_17_59
*331 FILLER_0_17_66
*332 FILLER_0_17_72
*333 FILLER_0_17_88
*334 FILLER_0_17_92
*335 FILLER_0_18_100
*336 FILLER_0_18_104
*337 FILLER_0_18_107
*338 FILLER_0_18_115
*339 FILLER_0_18_119
*340 FILLER_0_18_127
*341 FILLER_0_18_159
*342 FILLER_0_18_173
*343 FILLER_0_18_177
*344 FILLER_0_18_18
*345 FILLER_0_18_185
*346 FILLER_0_18_187
*347 FILLER_0_18_2
*348 FILLER_0_18_34
*349 FILLER_0_18_37
*350 FILLER_0_18_53
*351 FILLER_0_18_67
*352 FILLER_0_18_83
*353 FILLER_0_19_10
*354 FILLER_0_19_109
*355 FILLER_0_19_111
*356 FILLER_0_19_12
*357 FILLER_0_19_122
*358 FILLER_0_19_126
*359 FILLER_0_19_133
*360 FILLER_0_19_137
*361 FILLER_0_19_139
*362 FILLER_0_19_142
*363 FILLER_0_19_146
*364 FILLER_0_19_148
*365 FILLER_0_19_155
*366 FILLER_0_19_159
*367 FILLER_0_19_182
*368 FILLER_0_19_186
*369 FILLER_0_19_2
*370 FILLER_0_19_46
*371 FILLER_0_19_54
*372 FILLER_0_19_58
*373 FILLER_0_19_67
*374 FILLER_0_19_69
*375 FILLER_0_19_78
*376 FILLER_0_19_82
*377 FILLER_0_1_136
*378 FILLER_0_1_142
*379 FILLER_0_1_174
*380 FILLER_0_1_182
*381 FILLER_0_1_186
*382 FILLER_0_1_2
*383 FILLER_0_1_66
*384 FILLER_0_1_72
*385 FILLER_0_20_102
*386 FILLER_0_20_104
*387 FILLER_0_20_107
*388 FILLER_0_20_115
*389 FILLER_0_20_117
*390 FILLER_0_20_124
*391 FILLER_0_20_128
*392 FILLER_0_20_130
*393 FILLER_0_20_141
*394 FILLER_0_20_154
*395 FILLER_0_20_162
*396 FILLER_0_20_169
*397 FILLER_0_20_173
*398 FILLER_0_20_177
*399 FILLER_0_20_179
*400 FILLER_0_20_18
*401 FILLER_0_20_2
*402 FILLER_0_20_22
*403 FILLER_0_20_24
*404 FILLER_0_20_37
*405 FILLER_0_20_53
*406 FILLER_0_20_64
*407 FILLER_0_20_80
*408 FILLER_0_20_90
*409 FILLER_0_20_98
*410 FILLER_0_21_101
*411 FILLER_0_21_104
*412 FILLER_0_21_11
*413 FILLER_0_21_111
*414 FILLER_0_21_119
*415 FILLER_0_21_123
*416 FILLER_0_21_131
*417 FILLER_0_21_135
*418 FILLER_0_21_138
*419 FILLER_0_21_142
*420 FILLER_0_21_144
*421 FILLER_0_21_151
*422 FILLER_0_21_159
*423 FILLER_0_21_163
*424 FILLER_0_21_178
*425 FILLER_0_21_19
*426 FILLER_0_21_2
*427 FILLER_0_21_23
*428 FILLER_0_21_31
*429 FILLER_0_21_33
*430 FILLER_0_21_36
*431 FILLER_0_21_4
*432 FILLER_0_21_44
*433 FILLER_0_21_51
*434 FILLER_0_21_67
*435 FILLER_0_21_76
*436 FILLER_0_21_84
*437 FILLER_0_21_91
*438 FILLER_0_21_99
*439 FILLER_0_2_101
*440 FILLER_0_2_107
*441 FILLER_0_2_171
*442 FILLER_0_2_177
*443 FILLER_0_2_179
*444 FILLER_0_2_2
*445 FILLER_0_2_34
*446 FILLER_0_2_37
*447 FILLER_0_3_136
*448 FILLER_0_3_142
*449 FILLER_0_3_174
*450 FILLER_0_3_182
*451 FILLER_0_3_186
*452 FILLER_0_3_2
*453 FILLER_0_3_66
*454 FILLER_0_3_72
*455 FILLER_0_4_101
*456 FILLER_0_4_107
*457 FILLER_0_4_115
*458 FILLER_0_4_117
*459 FILLER_0_4_122
*460 FILLER_0_4_126
*461 FILLER_0_4_158
*462 FILLER_0_4_174
*463 FILLER_0_4_177
*464 FILLER_0_4_185
*465 FILLER_0_4_187
*466 FILLER_0_4_2
*467 FILLER_0_4_34
*468 FILLER_0_4_37
*469 FILLER_0_5_105
*470 FILLER_0_5_109
*471 FILLER_0_5_111
*472 FILLER_0_5_127
*473 FILLER_0_5_135
*474 FILLER_0_5_139
*475 FILLER_0_5_142
*476 FILLER_0_5_158
*477 FILLER_0_5_162
*478 FILLER_0_5_164
*479 FILLER_0_5_171
*480 FILLER_0_5_179
*481 FILLER_0_5_18
*482 FILLER_0_5_183
*483 FILLER_0_5_185
*484 FILLER_0_5_2
*485 FILLER_0_5_26
*486 FILLER_0_5_36
*487 FILLER_0_5_40
*488 FILLER_0_5_56
*489 FILLER_0_5_64
*490 FILLER_0_5_68
*491 FILLER_0_5_72
*492 FILLER_0_5_74
*493 FILLER_0_5_85
*494 FILLER_0_5_89
*495 FILLER_0_6_10
*496 FILLER_0_6_101
*497 FILLER_0_6_107
*498 FILLER_0_6_115
*499 FILLER_0_6_117
*500 FILLER_0_6_126
*501 FILLER_0_6_130
*502 FILLER_0_6_146
*503 FILLER_0_6_160
*504 FILLER_0_6_177
*505 FILLER_0_6_181
*506 FILLER_0_6_2
*507 FILLER_0_6_48
*508 FILLER_0_6_57
*509 FILLER_0_6_65
*510 FILLER_0_6_93
*511 FILLER_0_7_103
*512 FILLER_0_7_111
*513 FILLER_0_7_115
*514 FILLER_0_7_117
*515 FILLER_0_7_122
*516 FILLER_0_7_138
*517 FILLER_0_7_142
*518 FILLER_0_7_170
*519 FILLER_0_7_186
*520 FILLER_0_7_2
*521 FILLER_0_7_38
*522 FILLER_0_7_72
*523 FILLER_0_7_87
*524 FILLER_0_8_103
*525 FILLER_0_8_107
*526 FILLER_0_8_115
*527 FILLER_0_8_117
*528 FILLER_0_8_126
*529 FILLER_0_8_142
*530 FILLER_0_8_150
*531 FILLER_0_8_170
*532 FILLER_0_8_174
*533 FILLER_0_8_177
*534 FILLER_0_8_18
*535 FILLER_0_8_185
*536 FILLER_0_8_187
*537 FILLER_0_8_2
*538 FILLER_0_8_28
*539 FILLER_0_8_32
*540 FILLER_0_8_34
*541 FILLER_0_8_37
*542 FILLER_0_8_53
*543 FILLER_0_8_87
*544 FILLER_0_9_100
*545 FILLER_0_9_133
*546 FILLER_0_9_137
*547 FILLER_0_9_139
*548 FILLER_0_9_142
*549 FILLER_0_9_150
*550 FILLER_0_9_175
*551 FILLER_0_9_179
*552 FILLER_0_9_2
*553 FILLER_0_9_25
*554 FILLER_0_9_57
*555 FILLER_0_9_6
*556 FILLER_0_9_65
*557 FILLER_0_9_69
*558 FILLER_0_9_72
*559 FILLER_0_9_88
*560 FILLER_0_9_96
*561 PHY_EDGE_ROW_0_Left_22
*562 PHY_EDGE_ROW_0_Right_0
*563 PHY_EDGE_ROW_10_Left_32
*564 PHY_EDGE_ROW_10_Right_10
*565 PHY_EDGE_ROW_11_Left_33
*566 PHY_EDGE_ROW_11_Right_11
*567 PHY_EDGE_ROW_12_Left_34
*568 PHY_EDGE_ROW_12_Right_12
*569 PHY_EDGE_ROW_13_Left_35
*570 PHY_EDGE_ROW_13_Right_13
*571 PHY_EDGE_ROW_14_Left_36
*572 PHY_EDGE_ROW_14_Right_14
*573 PHY_EDGE_ROW_15_Left_37
*574 PHY_EDGE_ROW_15_Right_15
*575 PHY_EDGE_ROW_16_Left_38
*576 PHY_EDGE_ROW_16_Right_16
*577 PHY_EDGE_ROW_17_Left_39
*578 PHY_EDGE_ROW_17_Right_17
*579 PHY_EDGE_ROW_18_Left_40
*580 PHY_EDGE_ROW_18_Right_18
*581 PHY_EDGE_ROW_19_Left_41
*582 PHY_EDGE_ROW_19_Right_19
*583 PHY_EDGE_ROW_1_Left_23
*584 PHY_EDGE_ROW_1_Right_1
*585 PHY_EDGE_ROW_20_Left_42
*586 PHY_EDGE_ROW_20_Right_20
*587 PHY_EDGE_ROW_21_Left_43
*588 PHY_EDGE_ROW_21_Right_21
*589 PHY_EDGE_ROW_2_Left_24
*590 PHY_EDGE_ROW_2_Right_2
*591 PHY_EDGE_ROW_3_Left_25
*592 PHY_EDGE_ROW_3_Right_3
*593 PHY_EDGE_ROW_4_Left_26
*594 PHY_EDGE_ROW_4_Right_4
*595 PHY_EDGE_ROW_5_Left_27
*596 PHY_EDGE_ROW_5_Right_5
*597 PHY_EDGE_ROW_6_Left_28
*598 PHY_EDGE_ROW_6_Right_6
*599 PHY_EDGE_ROW_7_Left_29
*600 PHY_EDGE_ROW_7_Right_7
*601 PHY_EDGE_ROW_8_Left_30
*602 PHY_EDGE_ROW_8_Right_8
*603 PHY_EDGE_ROW_9_Left_31
*604 PHY_EDGE_ROW_9_Right_9
*605 TAP_TAPCELL_ROW_0_44
*606 TAP_TAPCELL_ROW_0_45
*607 TAP_TAPCELL_ROW_0_46
*608 TAP_TAPCELL_ROW_0_47
*609 TAP_TAPCELL_ROW_0_48
*610 TAP_TAPCELL_ROW_10_71
*611 TAP_TAPCELL_ROW_10_72
*612 TAP_TAPCELL_ROW_10_73
*613 TAP_TAPCELL_ROW_11_74
*614 TAP_TAPCELL_ROW_11_75
*615 TAP_TAPCELL_ROW_12_76
*616 TAP_TAPCELL_ROW_12_77
*617 TAP_TAPCELL_ROW_12_78
*618 TAP_TAPCELL_ROW_13_79
*619 TAP_TAPCELL_ROW_13_80
*620 TAP_TAPCELL_ROW_14_81
*621 TAP_TAPCELL_ROW_14_82
*622 TAP_TAPCELL_ROW_14_83
*623 TAP_TAPCELL_ROW_15_84
*624 TAP_TAPCELL_ROW_15_85
*625 TAP_TAPCELL_ROW_16_86
*626 TAP_TAPCELL_ROW_16_87
*627 TAP_TAPCELL_ROW_16_88
*628 TAP_TAPCELL_ROW_17_89
*629 TAP_TAPCELL_ROW_17_90
*630 TAP_TAPCELL_ROW_18_91
*631 TAP_TAPCELL_ROW_18_92
*632 TAP_TAPCELL_ROW_18_93
*633 TAP_TAPCELL_ROW_19_94
*634 TAP_TAPCELL_ROW_19_95
*635 TAP_TAPCELL_ROW_1_49
*636 TAP_TAPCELL_ROW_1_50
*637 TAP_TAPCELL_ROW_20_96
*638 TAP_TAPCELL_ROW_20_97
*639 TAP_TAPCELL_ROW_20_98
*640 TAP_TAPCELL_ROW_21_100
*641 TAP_TAPCELL_ROW_21_101
*642 TAP_TAPCELL_ROW_21_102
*643 TAP_TAPCELL_ROW_21_103
*644 TAP_TAPCELL_ROW_21_99
*645 TAP_TAPCELL_ROW_2_51
*646 TAP_TAPCELL_ROW_2_52
*647 TAP_TAPCELL_ROW_2_53
*648 TAP_TAPCELL_ROW_3_54
*649 TAP_TAPCELL_ROW_3_55
*650 TAP_TAPCELL_ROW_4_56
*651 TAP_TAPCELL_ROW_4_57
*652 TAP_TAPCELL_ROW_4_58
*653 TAP_TAPCELL_ROW_5_59
*654 TAP_TAPCELL_ROW_5_60
*655 TAP_TAPCELL_ROW_6_61
*656 TAP_TAPCELL_ROW_6_62
*657 TAP_TAPCELL_ROW_6_63
*658 TAP_TAPCELL_ROW_7_64
*659 TAP_TAPCELL_ROW_7_65
*660 TAP_TAPCELL_ROW_8_66
*661 TAP_TAPCELL_ROW_8_67
*662 TAP_TAPCELL_ROW_8_68
*663 TAP_TAPCELL_ROW_9_69
*664 TAP_TAPCELL_ROW_9_70
*665 _096_
*666 _097_
*667 _098_
*668 _099_
*669 _100_
*670 _101_
*671 _102_
*672 _103_
*673 _104_
*674 _105_
*675 _106_
*676 _107_
*677 _108_
*678 _109_
*679 _110_
*680 _111_
*681 _112_
*682 _113_
*683 _114_
*684 _115_
*685 _116_
*686 _117_
*687 _118_
*688 _119_
*689 _120_
*690 _121_
*691 _122_
*692 _123_
*693 _124_
*694 _125_
*695 _126_
*696 _127_
*697 _128_
*698 _129_
*699 _130_
*700 _131_
*701 _132_
*702 _133_
*703 _134_
*704 _135_
*705 _136_
*706 _137_
*707 _138_
*708 _139_
*709 _140_
*710 _141_
*711 _142_
*712 _143_
*713 _144_
*714 _145_
*715 _146_
*716 _147_
*717 _148_
*718 _149_
*719 _150_
*720 _151_
*721 _152_
*722 _153_
*723 _154_
*724 _155_
*725 _156_
*726 _157_
*727 _158_
*728 _159_
*729 _160_
*730 _161_
*731 _162_
*732 _163_
*733 _164_
*734 _165_
*735 _166_
*736 _167_
*737 _168_
*738 _169_
*739 _170_
*740 _171_
*741 _172_
*742 _173_
*743 _174_
*744 _175_
*745 _176_
*746 _177_
*747 _178_
*748 _179_
*749 _180_
*750 _181_
*751 _182_
*752 _183_
*753 _184_
*754 _185_
*755 _186_
*756 _187_
*757 _188_
*758 _189_
*759 _190_
*760 _191_
*761 _192_
*762 _193_
*763 _194_
*764 _195_
*765 _196_
*766 _197_
*767 _198_
*768 _199_
*769 _200_
*770 _201_
*771 _202_
*772 _203_
*773 _204_
*774 _205_
*775 _206_
*776 _207_
*777 _208_
*778 _209_
*779 _210_
*780 _211_
*781 _212_
*782 _213_
*783 _214_
*784 _215_
*785 _216_
*786 _217_
*787 _218_
*788 _219_
*789 _220_
*790 _221_
*791 _222_
*792 _223_
*793 _224_
*794 _225_
*795 _226_
*796 _227_
*797 _228_
*798 _229_
*799 _230_
*800 _231_
*801 input1
*802 input2
*803 input3
*804 input4
*805 input5
*806 input6
*807 output10
*808 output11
*809 output12
*810 output13
*811 output14
*812 output15
*813 output16
*814 output17
*815 output7
*816 output8
*817 output9

*PORTS
clk I
io_in[0] I
io_in[1] I
io_in[2] I
io_in[3] I
io_in[4] I
io_oeb O
io_out[0] O
io_out[1] O
io_out[2] O
io_out[3] O
io_out[4] O
io_out[5] O
io_out[6] O
io_out[7] O
io_out[8] O
io_out[9] O
rst_n I

*D_NET *1 0.0136091
*CONN
*P clk I
*I *675:A1 I *D gf180mcu_fd_sc_mcu7t5v0__nand2_1
*I *164:I I *D gf180mcu_fd_sc_mcu7t5v0__antenna
*I *165:I I *D gf180mcu_fd_sc_mcu7t5v0__antenna
*I *167:I I *D gf180mcu_fd_sc_mcu7t5v0__antenna
*I *730:I I *D gf180mcu_fd_sc_mcu7t5v0__clkinv_1
*I *169:I I *D gf180mcu_fd_sc_mcu7t5v0__antenna
*I *784:B I *D gf180mcu_fd_sc_mcu7t5v0__oai211_1
*I *712:A1 I *D gf180mcu_fd_sc_mcu7t5v0__aoi21_1
*CAP
1 clk 0.00233283
2 *675:A1 0
3 *164:I 5.99039e-05
4 *165:I 0
5 *167:I 0
6 *730:I 0
7 *169:I 0
8 *784:B 3.51969e-05
9 *712:A1 0.000170044
10 *1:50 0.000891195
11 *1:44 0.000931801
12 *1:42 0.000487479
13 *1:36 0.000411677
14 *1:21 0.00055971
15 *1:19 0.00044957
16 *1:17 0.00233283
17 *164:I *726:A2 0.000523951
18 *164:I *159:10 9.34825e-05
19 *164:I *159:12 6.33531e-06
20 *712:A1 *784:C 0.000113095
21 *712:A1 *36:12 0.000129342
22 *784:B *756:A2 8.15645e-05
23 *784:B *784:C 0.000380904
24 *784:B *93:10 3.03346e-05
25 *784:B *104:64 0.000157493
26 *1:17 *665:I 4.54102e-05
27 *1:17 *675:A2 0.000310356
28 *1:17 *768:A1 1.91917e-06
29 *1:17 *35:36 2.1527e-05
30 *1:17 *159:12 3.43264e-05
31 *1:21 *665:I 2.85237e-05
32 *1:21 *726:A2 0.000278996
33 *1:21 *727:B 0.000631818
34 *1:21 *784:C 0.000383527
35 *1:21 *35:8 0.00013915
36 *1:21 *36:12 0.000757622
37 *1:21 *159:12 4.08987e-05
38 *1:42 *756:C 5.26936e-05
39 *1:42 *104:64 8.29507e-05
40 *1:42 *129:10 0
41 *1:44 *104:64 6.55517e-05
42 *1:50 *756:A2 7.83779e-05
43 *1:50 *93:10 1.44832e-05
44 *1:50 *104:64 0.000462276
*RES
1 clk *1:17 28.662 
2 *1:17 *1:19 4.5 
3 *1:19 *1:21 6.612 
4 *1:21 *712:A1 10.596 
5 *1:21 *1:36 4.5 
6 *1:36 *1:42 7.084 
7 *1:42 *1:44 0.684 
8 *1:44 *1:50 10.732 
9 *1:50 *784:B 14.792 
10 *1:50 *169:I 4.5 
11 *1:44 *730:I 9 
12 *1:42 *167:I 9 
13 *1:36 *165:I 4.5 
14 *1:19 *164:I 10.292 
15 *1:17 *675:A1 4.5 
*END

*D_NET *2 0.000866692
*CONN
*P io_in[0] I
*I *801:I I *D gf180mcu_fd_sc_mcu7t5v0__clkbuf_1
*I *171:I I *D gf180mcu_fd_sc_mcu7t5v0__antenna
*CAP
1 io_in[0] 0.000256057
2 *801:I 0.000174996
3 *171:I 0
4 *2:7 0.000431053
5 *801:I *159:10 4.58601e-06
*RES
1 io_in[0] *2:7 5.906 
2 *2:7 *171:I 4.5 
3 *2:7 *801:I 5.488 
*END

*D_NET *3 0.000941305
*CONN
*P io_in[1] I
*I *802:I I *D gf180mcu_fd_sc_mcu7t5v0__clkbuf_1
*I *172:I I *D gf180mcu_fd_sc_mcu7t5v0__antenna
*CAP
1 io_in[1] 0.000256057
2 *802:I 4.88388e-05
3 *172:I 0.000165757
4 *3:5 0.000470653
*RES
1 io_in[1] *3:5 1.406 
2 *3:5 *172:I 10.064 
3 *3:5 *802:I 9.38 
*END

*D_NET *4 0.00113078
*CONN
*P io_in[2] I
*I *803:I I *D gf180mcu_fd_sc_mcu7t5v0__clkbuf_1
*I *173:I I *D gf180mcu_fd_sc_mcu7t5v0__antenna
*CAP
1 io_in[2] 0.000338625
2 *803:I 2.44163e-05
3 *173:I 0.000106823
4 *4:9 0.000469863
5 *173:I *759:A2 7.98048e-05
6 *803:I *768:A2 2.74753e-05
7 *4:9 *768:A2 8.37772e-05
*RES
1 io_in[2] *4:9 6.438 
2 *4:9 *173:I 14.336 
3 *4:9 *803:I 4.728 
*END

*D_NET *5 0.00119282
*CONN
*P io_in[3] I
*I *804:I I *D gf180mcu_fd_sc_mcu7t5v0__clkbuf_1
*I *174:I I *D gf180mcu_fd_sc_mcu7t5v0__antenna
*CAP
1 io_in[3] 0.000371865
2 *804:I 0
3 *174:I 0.000138588
4 *5:9 0.000510453
5 *5:9 *768:A2 0.000171918
*RES
1 io_in[3] *5:9 6.894 
2 *5:9 *174:I 14.336 
3 *5:9 *804:I 4.5 
*END

*D_NET *6 0.000762664
*CONN
*P io_in[4] I
*I *805:I I *D gf180mcu_fd_sc_mcu7t5v0__clkbuf_1
*I *175:I I *D gf180mcu_fd_sc_mcu7t5v0__antenna
*CAP
1 io_in[4] 0.000245614
2 *805:I 0
3 *175:I 0.000118673
4 *6:5 0.000364287
5 *175:I *814:I 3.40895e-05
*RES
1 io_in[4] *6:5 1.406 
2 *6:5 *175:I 9.836 
3 *6:5 *805:I 9 
*END

*D_NET *7 0.00221841
*CONN
*P io_oeb O
*I *815:Z O *D gf180mcu_fd_sc_mcu7t5v0__buf_1
*CAP
1 io_oeb 0.00094913
2 *815:Z 0.00094913
3 io_oeb io_out[8] 0.000320148
*RES
1 *815:Z io_oeb 16.182 
*END

*D_NET *8 0.00139697
*CONN
*P io_out[0] O
*I *816:Z O *D gf180mcu_fd_sc_mcu7t5v0__buf_1
*CAP
1 io_out[0] 0.000698486
2 *816:Z 0.000698486
*RES
1 *816:Z io_out[0] 9.25 
*END

*D_NET *9 0.00143651
*CONN
*P io_out[1] O
*I *817:Z O *D gf180mcu_fd_sc_mcu7t5v0__buf_1
*CAP
1 io_out[1] 0.000718254
2 *817:Z 0.000718254
3 io_out[1] *668:A2 0
*RES
1 *817:Z io_out[1] 9.25 
*END

*D_NET *10 0.00141286
*CONN
*P io_out[2] O
*I *807:Z O *D gf180mcu_fd_sc_mcu7t5v0__buf_1
*CAP
1 io_out[2] 0.00070643
2 *807:Z 0.00070643
*RES
1 *807:Z io_out[2] 9.25 
*END

*D_NET *11 0.00169108
*CONN
*P io_out[3] O
*I *808:Z O *D gf180mcu_fd_sc_mcu7t5v0__buf_1
*CAP
1 io_out[3] 0.000845542
2 *808:Z 0.000845542
*RES
1 *808:Z io_out[3] 10.77 
*END

*D_NET *12 0.00139697
*CONN
*P io_out[4] O
*I *809:Z O *D gf180mcu_fd_sc_mcu7t5v0__buf_1
*CAP
1 io_out[4] 0.000698486
2 *809:Z 0.000698486
*RES
1 *809:Z io_out[4] 9.25 
*END

*D_NET *13 0.00139697
*CONN
*P io_out[5] O
*I *810:Z O *D gf180mcu_fd_sc_mcu7t5v0__buf_1
*CAP
1 io_out[5] 0.000698486
2 *810:Z 0.000698486
*RES
1 *810:Z io_out[5] 9.25 
*END

*D_NET *14 0.00139565
*CONN
*P io_out[6] O
*I *811:Z O *D gf180mcu_fd_sc_mcu7t5v0__buf_1
*CAP
1 io_out[6] 0.000697824
2 *811:Z 0.000697824
*RES
1 *811:Z io_out[6] 9.174 
*END

*D_NET *15 0.00139565
*CONN
*P io_out[7] O
*I *812:Z O *D gf180mcu_fd_sc_mcu7t5v0__buf_1
*CAP
1 io_out[7] 0.000697824
2 *812:Z 0.000697824
3 io_out[7] *800:A2 0
*RES
1 *812:Z io_out[7] 9.174 
*END

*D_NET *16 0.00227961
*CONN
*P io_out[8] O
*I *813:Z O *D gf180mcu_fd_sc_mcu7t5v0__buf_1
*CAP
1 io_out[8] 0.000701302
2 *813:Z 0.000701302
3 io_out[8] *813:I 0.000556855
4 io_oeb io_out[8] 0.000320148
*RES
1 *813:Z io_out[8] 19.238 
*END

*D_NET *17 0.00144124
*CONN
*P io_out[9] O
*I *814:Z O *D gf180mcu_fd_sc_mcu7t5v0__buf_1
*CAP
1 io_out[9] 0.000705175
2 *814:Z 0.000705175
3 io_out[9] *814:I 3.08902e-05
*RES
1 *814:Z io_out[9] 9.174 
*END

*D_NET *18 0.00110121
*CONN
*P rst_n I
*I *806:I I *D gf180mcu_fd_sc_mcu7t5v0__clkbuf_1
*I *176:I I *D gf180mcu_fd_sc_mcu7t5v0__antenna
*CAP
1 rst_n 0.000406702
2 *806:I 0
3 *176:I 0.00013277
4 *18:9 0.000539472
5 *18:9 *159:10 2.22657e-05
*RES
1 rst_n *18:9 6.742 
2 *18:9 *176:I 14.336 
3 *18:9 *806:I 4.5 
*END

*D_NET *21 0.0140377
*CONN
*I *686:A1 I *D gf180mcu_fd_sc_mcu7t5v0__nor2_1
*I *749:A1 I *D gf180mcu_fd_sc_mcu7t5v0__oai21_1
*I *774:A4 I *D gf180mcu_fd_sc_mcu7t5v0__nor4_1
*I *701:A4 I *D gf180mcu_fd_sc_mcu7t5v0__nor4_1
*I *683:Z O *D gf180mcu_fd_sc_mcu7t5v0__buf_1
*CAP
1 *686:A1 0.000684625
2 *749:A1 3.08007e-05
3 *774:A4 0.000996839
4 *701:A4 3.90153e-05
5 *683:Z 0
6 *21:40 0.00108799
7 *21:12 0.00197976
8 *21:4 0.00131646
9 *686:A1 *694:A2 0.0001303
10 *686:A1 *727:B 0.000205065
11 *686:A1 *749:A2 0.000981608
12 *686:A1 *29:8 0.000247486
13 *686:A1 *29:16 0.000407827
14 *749:A1 *727:A1 4.58601e-06
15 *749:A1 *29:16 2.22657e-05
16 *749:A1 *74:10 2.22657e-05
17 *774:A4 *681:A3 0.000102094
18 *774:A4 *688:A1 0.000425859
19 *774:A4 *697:I 0.000324233
20 *774:A4 *699:A1 0.000104777
21 *774:A4 *774:A2 6.74649e-06
22 *774:A4 *774:A3 7.3227e-05
23 *774:A4 *43:30 0
24 *774:A4 *43:56 0
25 *774:A4 *105:10 0.000785788
26 *774:A4 *105:19 0.000216888
27 *774:A4 *115:31 3.63893e-05
28 *21:12 *671:I 7.08039e-05
29 *21:12 *683:I 8.55242e-05
30 *21:12 *692:A2 1.64988e-05
31 *21:12 *695:A2 0.00107367
32 *21:12 *702:I 0.000142809
33 *21:12 *725:B1 4.48662e-05
34 *21:12 *725:B2 5.91493e-05
35 *21:12 *727:A2 0
36 *21:12 *807:I 0
37 *21:12 *105:10 6.31119e-05
38 *21:12 *107:29 0.000326968
39 *21:40 *694:A1 0
40 *21:40 *694:A2 0
41 *21:40 *727:A1 0.000103272
42 *21:40 *727:B 8.8425e-05
43 *21:40 *29:16 0
44 *21:40 *30:16 0.000514804
45 *21:40 *69:8 0
46 *21:40 *74:10 0.000108522
47 *21:40 *116:26 0.00110638
*RES
1 *683:Z *21:4 4.5 
2 *21:4 *21:12 12.328 
3 *21:12 *701:A4 9.228 
4 *21:12 *774:A4 18.424 
5 *21:4 *21:40 13.408 
6 *21:40 *749:A1 4.728 
7 *21:40 *686:A1 20.72 
*END

*D_NET *22 0.00478678
*CONN
*I *685:A1 I *D gf180mcu_fd_sc_mcu7t5v0__nor3_1
*I *769:A1 I *D gf180mcu_fd_sc_mcu7t5v0__nor2_1
*I *740:A3 I *D gf180mcu_fd_sc_mcu7t5v0__oai32_1
*I *742:A3 I *D gf180mcu_fd_sc_mcu7t5v0__oai31_1
*I *684:Z O *D gf180mcu_fd_sc_mcu7t5v0__buf_1
*CAP
1 *685:A1 0
2 *769:A1 0.000127169
3 *740:A3 0
4 *742:A3 0.000213109
5 *684:Z 0.000114007
6 *22:10 0.000452371
7 *22:8 0.000366431
8 *22:6 0.000114007
9 *742:A3 *682:A2 7.26556e-05
10 *742:A3 *694:A2 0
11 *742:A3 *742:A1 0.000242384
12 *742:A3 *103:35 6.70219e-05
13 *742:A3 *134:8 0.000132681
14 *769:A1 *685:A2 0.000324241
15 *769:A1 *768:A1 5.02133e-05
16 *769:A1 *768:C 4.7151e-05
17 *769:A1 *769:A2 0.000162129
18 *769:A1 *36:30 4.04599e-05
19 *769:A1 *103:23 0.000403176
20 *769:A1 *135:8 6.33531e-06
21 *22:6 *727:B 0.000361006
22 *22:10 *682:A2 0.000178879
23 *22:10 *715:A2 0.000460318
24 *22:10 *768:C 4.07251e-05
25 *22:10 *103:23 0.000706555
26 *22:10 *103:35 0.000103757
*RES
1 *684:Z *22:6 5.488 
2 *22:6 *22:8 4.5 
3 *22:8 *22:10 4.636 
4 *22:10 *742:A3 11.052 
5 *22:10 *740:A3 9 
6 *22:8 *769:A1 11.128 
7 *22:6 *685:A1 4.5 
*END

*D_NET *23 0.0038506
*CONN
*I *686:A2 I *D gf180mcu_fd_sc_mcu7t5v0__nor2_1
*I *768:C I *D gf180mcu_fd_sc_mcu7t5v0__aoi211_1
*I *685:ZN O *D gf180mcu_fd_sc_mcu7t5v0__nor3_1
*CAP
1 *686:A2 0.000468504
2 *768:C 7.68784e-05
3 *685:ZN 0
4 *23:4 0.000545382
5 *686:A2 *694:A2 0.00169072
6 *686:A2 *727:B 0.000123951
7 *768:C *685:A2 0.000331102
8 *768:C *715:A2 0.000496526
9 *768:C *727:B 2.96621e-05
10 *769:A1 *768:C 4.7151e-05
11 *22:10 *768:C 4.07251e-05
*RES
1 *685:ZN *23:4 4.5 
2 *23:4 *768:C 15.02 
3 *23:4 *686:A2 18.516 
*END

*D_NET *24 0.00724352
*CONN
*I *688:A2 I *D gf180mcu_fd_sc_mcu7t5v0__nor3_1
*I *718:A3 I *D gf180mcu_fd_sc_mcu7t5v0__nor4_1
*I *776:A2 I *D gf180mcu_fd_sc_mcu7t5v0__nor3_1
*I *701:A2 I *D gf180mcu_fd_sc_mcu7t5v0__nor4_1
*I *687:Z O *D gf180mcu_fd_sc_mcu7t5v0__buf_1
*CAP
1 *688:A2 0.000189563
2 *718:A3 0.000493635
3 *776:A2 5.47922e-05
4 *701:A2 0
5 *687:Z 0
6 *24:26 0.00157365
7 *24:12 0.000363806
8 *24:6 0.00119946
9 *688:A2 *673:I 0.000124641
10 *688:A2 *688:A3 5.75052e-05
11 *688:A2 *43:16 0.000147313
12 *688:A2 *43:30 0
13 *688:A2 *132:6 2.6126e-05
14 *718:A3 *672:A2 8.77031e-05
15 *718:A3 *672:A3 0.000999094
16 *718:A3 *688:A1 0
17 *718:A3 *697:I 6.41347e-05
18 *718:A3 *797:A2 2.73907e-05
19 *718:A3 *43:16 0
20 *718:A3 *43:30 5.67499e-05
21 *718:A3 *119:6 5.14116e-06
22 *776:A2 *701:A1 8.95196e-05
23 *776:A2 *108:15 0.00028423
24 *24:12 *671:I 0.000564624
25 *24:12 *695:A2 0.000147407
26 *24:12 *808:I 0.000149462
27 *24:12 *108:6 0.00031512
28 *24:12 *108:15 3.08902e-05
29 *24:26 *673:I 2.6058e-05
30 *24:26 *691:A2 1.37792e-05
31 *24:26 *808:I 6.08274e-05
32 *24:26 *25:14 6.55129e-06
33 *24:26 *25:16 8.43427e-05
34 *24:26 *115:31 0
35 *24:26 *118:16 0
*RES
1 *687:Z *24:6 9 
2 *24:6 *24:12 8.148 
3 *24:12 *701:A2 4.5 
4 *24:12 *776:A2 5.336 
5 *24:6 *24:26 4.94 
6 *24:26 *718:A3 13.18 
7 *24:26 *688:A2 10.976 
*END

*D_NET *25 0.00625796
*CONN
*I *748:A3 I *D gf180mcu_fd_sc_mcu7t5v0__or3_1
*I *739:A1 I *D gf180mcu_fd_sc_mcu7t5v0__aoi211_1
*I *690:A3 I *D gf180mcu_fd_sc_mcu7t5v0__nor3_1
*I *691:A2 I *D gf180mcu_fd_sc_mcu7t5v0__nor3_1
*I *689:Z O *D gf180mcu_fd_sc_mcu7t5v0__buf_1
*CAP
1 *748:A3 0
2 *739:A1 6.51357e-05
3 *690:A3 0
4 *691:A2 0.000274105
5 *689:Z 0.000470095
6 *25:38 0.000214554
7 *25:16 0.000534161
8 *25:14 0.000879569
9 *691:A2 *671:I 4.16318e-05
10 *691:A2 *687:I 0.000252142
11 *691:A2 *692:A1 0.000444445
12 *691:A2 *692:A2 5.09442e-06
13 *691:A2 *808:I 1.20889e-05
14 *691:A2 *26:16 0
15 *691:A2 *118:22 1.42348e-05
16 *691:A2 *133:22 6.09543e-05
17 *739:A1 *109:10 0.00018027
18 *739:A1 *114:22 0.000641859
19 *739:A1 *114:24 0.000485146
20 *739:A1 *118:16 0.000447459
21 *25:14 *672:A3 6.10076e-06
22 *25:14 *109:10 0.000140273
23 *25:14 *110:10 0
24 *25:14 *110:32 9.71035e-05
25 *25:14 *115:31 0.000483585
26 *25:14 *118:16 2.92666e-05
27 *25:16 *118:16 3.02664e-05
28 *25:16 *118:22 0.00020297
29 *25:38 *109:10 5.41094e-05
30 *25:38 *110:10 8.51705e-05
31 *25:38 *115:31 1.49066e-06
32 *24:26 *691:A2 1.37792e-05
33 *24:26 *25:14 6.55129e-06
34 *24:26 *25:16 8.43427e-05
*RES
1 *689:Z *25:14 12.648 
2 *25:14 *25:16 2.508 
3 *25:16 *691:A2 11.432 
4 *25:16 *690:A3 9 
5 *25:14 *25:38 5.488 
6 *25:38 *739:A1 16.312 
7 *25:38 *748:A3 4.5 
*END

*D_NET *26 0.00702522
*CONN
*I *692:A1 I *D gf180mcu_fd_sc_mcu7t5v0__or2_1
*I *725:A2 I *D gf180mcu_fd_sc_mcu7t5v0__aoi22_1
*I *742:B I *D gf180mcu_fd_sc_mcu7t5v0__oai31_1
*I *690:ZN O *D gf180mcu_fd_sc_mcu7t5v0__nor3_1
*CAP
1 *692:A1 0.000142987
2 *725:A2 0
3 *742:B 0.00100944
4 *690:ZN 0
5 *26:16 0.00167046
6 *26:4 0.000804009
7 *692:A1 *671:I 4.50449e-05
8 *692:A1 *687:I 5.22519e-05
9 *692:A1 *808:I 0.000205318
10 *692:A1 *133:22 8.982e-05
11 *742:B *694:A1 0.000137776
12 *742:B *694:A2 0.000449897
13 *742:B *725:A1 0.000175566
14 *742:B *727:A1 0
15 *742:B *727:A2 8.62268e-05
16 *742:B *747:A1 0.000197971
17 *742:B *30:16 0.000141888
18 *742:B *65:14 0.000338586
19 *742:B *134:8 0
20 *26:16 *687:I 7.83779e-05
21 *26:16 *691:A3 1.15244e-05
22 *26:16 *725:B1 0
23 *26:16 *727:A2 0.000116649
24 *26:16 *751:A2 7.45328e-07
25 *26:16 *751:A3 9.89992e-05
26 *26:16 *51:12 0.000389719
27 *26:16 *116:26 9.84743e-05
28 *26:16 *133:22 0.000239048
29 *691:A2 *692:A1 0.000444445
30 *691:A2 *26:16 0
*RES
1 *690:ZN *26:4 4.5 
2 *26:4 *26:16 13.712 
3 *26:16 *742:B 22.24 
4 *26:16 *725:A2 4.5 
5 *26:4 *692:A1 15.476 
*END

*D_NET *27 0.00127378
*CONN
*I *725:B1 I *D gf180mcu_fd_sc_mcu7t5v0__aoi22_1
*I *692:A2 I *D gf180mcu_fd_sc_mcu7t5v0__or2_1
*I *691:ZN O *D gf180mcu_fd_sc_mcu7t5v0__nor3_1
*CAP
1 *725:B1 0.000321986
2 *692:A2 0.000160013
3 *691:ZN 0
4 *27:4 0.000482
5 *692:A2 *671:I 0.000141117
6 *692:A2 *691:A3 4.97386e-06
7 *692:A2 *720:A3 3.73535e-05
8 *692:A2 *107:29 2.25107e-05
9 *725:B1 *727:A2 2.17248e-05
10 *725:B1 *107:29 1.56391e-05
11 *691:A2 *692:A2 5.09442e-06
12 *21:12 *692:A2 1.64988e-05
13 *21:12 *725:B1 4.48662e-05
14 *26:16 *725:B1 0
*RES
1 *691:ZN *27:4 4.5 
2 *27:4 *692:A2 5.716 
3 *27:4 *725:B1 6.552 
*END

*D_NET *28 0.00283782
*CONN
*I *695:A2 I *D gf180mcu_fd_sc_mcu7t5v0__nand3_1
*I *692:Z O *D gf180mcu_fd_sc_mcu7t5v0__or2_1
*CAP
1 *695:A2 0.000509974
2 *692:Z 0.000509974
3 *695:A2 *671:I 1.83298e-05
4 *695:A2 *695:A3 0.000123951
5 *695:A2 *701:A3 1.5015e-05
6 *695:A2 *807:I 0
7 *695:A2 *812:I 9.88736e-06
8 *695:A2 *108:6 7.31626e-05
9 *695:A2 *108:15 0.0002823
10 *695:A2 *152:25 7.41459e-05
11 *21:12 *695:A2 0.00107367
12 *24:12 *695:A2 0.000147407
*RES
1 *692:Z *695:A2 14.472 
*END

*D_NET *29 0.00795412
*CONN
*I *717:I I *D gf180mcu_fd_sc_mcu7t5v0__buf_1
*I *742:A2 I *D gf180mcu_fd_sc_mcu7t5v0__oai31_1
*I *727:A1 I *D gf180mcu_fd_sc_mcu7t5v0__oai21_1
*I *694:A1 I *D gf180mcu_fd_sc_mcu7t5v0__nor2_1
*I *693:Z O *D gf180mcu_fd_sc_mcu7t5v0__buf_1
*CAP
1 *717:I 0.000224024
2 *742:A2 0.000199545
3 *727:A1 0.000151775
4 *694:A1 0.000201226
5 *693:Z 0
6 *29:16 0.000499908
7 *29:8 0.000370236
8 *29:4 0.000247807
9 *694:A1 *694:A2 1.99058e-05
10 *694:A1 *725:A1 2.76081e-05