*SPEF "ieee 1481-1999"
*DESIGN "ue1"
*DATE "13:19:43 Thursday July 31, 2025"
*VENDOR "The OpenROAD Project"
*PROGRAM "OpenROAD"
*VERSION "b16bda7e82721d10566ff7e2b68f1ff0be9f9e38"
*DESIGN_FLOW "NAME_SCOPE LOCAL" "PIN_CAP NONE"
*DIVIDER /
*DELIMITER :
*BUS_DELIMITER []
*T_UNIT 1 NS
*C_UNIT 1 PF
*R_UNIT 1 OHM
*L_UNIT 1 HENRY

*NAME_MAP
*1 clk
*2 io_in[0]
*3 io_in[1]
*4 io_in[2]
*5 io_in[3]
*6 io_in[4]
*7 io_oeb
*8 io_out[0]
*9 io_out[1]
*10 io_out[2]
*11 io_out[3]
*12 io_out[4]
*13 io_out[5]
*14 io_out[6]
*15 io_out[7]
*16 io_out[8]
*17 io_out[9]
*18 rst_n
*21 _000_
*22 _001_
*23 _002_
*24 _003_
*25 _004_
*26 _005_
*27 _006_
*28 _007_
*29 _008_
*30 _009_
*31 _010_
*32 _011_
*33 _012_
*34 _013_
*35 _014_
*36 _015_
*37 _016_
*38 _017_
*39 _018_
*40 _019_
*41 _020_
*42 _021_
*43 _022_
*44 _023_
*45 _024_
*46 _025_
*47 _026_
*48 _027_
*49 _028_
*50 _029_
*51 _030_
*52 _031_
*53 _032_
*54 _033_
*55 _034_
*56 _035_
*57 _036_
*58 _037_
*59 _038_
*60 _039_
*61 _040_
*62 _041_
*63 _042_
*64 _043_
*65 _044_
*66 _045_
*67 _046_
*68 _047_
*69 _048_
*70 _049_
*71 _050_
*72 _051_
*73 _052_
*74 _053_
*75 _054_
*76 _055_
*77 _056_
*78 _057_
*79 _058_
*80 _059_
*81 _060_
*82 _061_
*83 _062_
*84 _063_
*85 _064_
*86 _065_
*87 _066_
*88 _067_
*89 _068_
*90 _069_
*91 _070_
*92 _071_
*93 _072_
*94 _073_
*95 _074_
*96 _075_
*97 _076_
*98 _077_
*99 _078_
*100 _079_
*101 _080_
*102 _081_
*103 _082_
*104 _083_
*105 _084_
*106 _085_
*107 _086_
*108 _087_
*109 _088_
*110 _089_
*111 _090_
*112 _091_
*113 _092_
*114 _093_
*115 _094_
*116 _095_
*117 _096_
*118 _097_
*119 _098_
*120 _099_
*121 _100_
*122 _101_
*123 main\.CAR
*124 main\.GATES_1\.input1
*125 main\.GATES_100\.input1
*126 main\.GATES_100\.input2
*127 main\.GATES_102\.input1
*128 main\.GATES_102\.input2
*129 main\.GATES_102\.input3
*130 main\.GATES_103\.input2
*131 main\.GATES_105\.input3
*132 main\.GATES_106\.input2
*133 main\.GATES_107\.input2
*134 main\.GATES_108\.input1
*135 main\.GATES_109\.input1
*136 main\.GATES_109\.input2
*137 main\.GATES_11\.input2
*138 main\.GATES_110\.input1
*139 main\.GATES_111\.input2
*140 main\.GATES_113\.input1
*141 main\.GATES_114\.input2
*142 main\.GATES_115\.input2
*143 main\.GATES_116\.input1
*144 main\.GATES_116\.input3
*145 main\.GATES_119\.result
*146 main\.GATES_124\.input2
*147 main\.GATES_125\.input2
*148 main\.GATES_127\.result
*149 main\.GATES_132\.input1
*150 main\.GATES_15\.input3
*151 main\.GATES_16\.input1
*152 main\.GATES_18\.result
*153 main\.GATES_19\.input1
*154 main\.GATES_20\.result
*155 main\.GATES_26\.input3
*156 main\.GATES_29\.input3
*157 main\.GATES_46\.input3
*158 main\.GATES_65\.result
*159 main\.GATES_8\.result
*160 main\.NOPF
*161 main\.WRITE
*162 net1
*163 net10
*164 net11
*165 net12
*166 net13
*167 net14
*168 net15
*169 net16
*170 net17
*171 net2
*172 net3
*173 net4
*174 net5
*175 net6
*176 net7
*177 net8
*178 net9
*179 ANTENNA__110__A
*180 ANTENNA__111__A
*181 ANTENNA__123__A
*182 ANTENNA__127__A
*183 ANTENNA__139__A
*184 ANTENNA__146__A
*185 ANTENNA__158__C
*186 ANTENNA__164__A
*187 ANTENNA__171__B
*188 ANTENNA__175__A
*189 ANTENNA__191__A
*190 ANTENNA__194__B
*191 ANTENNA__194__C
*192 ANTENNA__219__A
*193 ANTENNA__223__A
*194 ANTENNA__226__B
*195 ANTENNA__227__C
*196 ANTENNA__231__A
*197 ANTENNA__231__B
*198 ANTENNA__238__B
*199 ANTENNA__241__B
*200 ANTENNA__244__A
*201 ANTENNA_input1_A
*202 ANTENNA_input2_A
*203 ANTENNA_input3_A
*204 ANTENNA_input4_A
*205 ANTENNA_input5_A
*206 ANTENNA_input6_A
*207 FILLER_0_0_104
*208 FILLER_0_0_120
*209 FILLER_0_0_138
*210 FILLER_0_0_154
*211 FILLER_0_0_172
*212 FILLER_0_0_18
*213 FILLER_0_0_2
*214 FILLER_0_0_36
*215 FILLER_0_0_52
*216 FILLER_0_0_70
*217 FILLER_0_0_86
*218 FILLER_0_10_10
*219 FILLER_0_10_101
*220 FILLER_0_10_107
*221 FILLER_0_10_123
*222 FILLER_0_10_139
*223 FILLER_0_10_147
*224 FILLER_0_10_151
*225 FILLER_0_10_153
*226 FILLER_0_10_161
*227 FILLER_0_10_169
*228 FILLER_0_10_173
*229 FILLER_0_10_177
*230 FILLER_0_10_185
*231 FILLER_0_10_187
*232 FILLER_0_10_2
*233 FILLER_0_10_37
*234 FILLER_0_10_53
*235 FILLER_0_10_69
*236 FILLER_0_10_85
*237 FILLER_0_11_10
*238 FILLER_0_11_102
*239 FILLER_0_11_104
*240 FILLER_0_11_116
*241 FILLER_0_11_120
*242 FILLER_0_11_122
*243 FILLER_0_11_127
*244 FILLER_0_11_135
*245 FILLER_0_11_139
*246 FILLER_0_11_14
*247 FILLER_0_11_142
*248 FILLER_0_11_171
*249 FILLER_0_11_187
*250 FILLER_0_11_2
*251 FILLER_0_11_22
*252 FILLER_0_11_38
*253 FILLER_0_11_54
*254 FILLER_0_11_62
*255 FILLER_0_11_82
*256 FILLER_0_11_86
*257 FILLER_0_11_88
*258 FILLER_0_12_100
*259 FILLER_0_12_104
*260 FILLER_0_12_121
*261 FILLER_0_12_129
*262 FILLER_0_12_151
*263 FILLER_0_12_167
*264 FILLER_0_12_171
*265 FILLER_0_12_177
*266 FILLER_0_12_18
*267 FILLER_0_12_181
*268 FILLER_0_12_2
*269 FILLER_0_12_26
*270 FILLER_0_12_28
*271 FILLER_0_12_37
*272 FILLER_0_12_60
*273 FILLER_0_12_69
*274 FILLER_0_12_85
*275 FILLER_0_13_101
*276 FILLER_0_13_105
*277 FILLER_0_13_114
*278 FILLER_0_13_130
*279 FILLER_0_13_138
*280 FILLER_0_13_148
*281 FILLER_0_13_156
*282 FILLER_0_13_160
*283 FILLER_0_13_162
*284 FILLER_0_13_18
*285 FILLER_0_13_184
*286 FILLER_0_13_2
*287 FILLER_0_13_22
*288 FILLER_0_13_36
*289 FILLER_0_13_40
*290 FILLER_0_13_48
*291 FILLER_0_13_78
*292 FILLER_0_13_86
*293 FILLER_0_14_102
*294 FILLER_0_14_104
*295 FILLER_0_14_114
*296 FILLER_0_14_130
*297 FILLER_0_14_146
*298 FILLER_0_14_162
*299 FILLER_0_14_170
*300 FILLER_0_14_174
*301 FILLER_0_14_18
*302 FILLER_0_14_183
*303 FILLER_0_14_187
*304 FILLER_0_14_2
*305 FILLER_0_14_26
*306 FILLER_0_14_37
*307 FILLER_0_14_41
*308 FILLER_0_14_57
*309 FILLER_0_14_59
*310 FILLER_0_14_66
*311 FILLER_0_14_82
*312 FILLER_0_14_98
*313 FILLER_0_15_106
*314 FILLER_0_15_114
*315 FILLER_0_15_118
*316 FILLER_0_15_126
*317 FILLER_0_15_134
*318 FILLER_0_15_138
*319 FILLER_0_15_142
*320 FILLER_0_15_146
*321 FILLER_0_15_148
*322 FILLER_0_15_156
*323 FILLER_0_15_164
*324 FILLER_0_15_179
*325 FILLER_0_15_187
*326 FILLER_0_15_2
*327 FILLER_0_15_25
*328 FILLER_0_15_41
*329 FILLER_0_15_57
*330 FILLER_0_15_65
*331 FILLER_0_15_69
*332 FILLER_0_15_72
*333 FILLER_0_15_88
*334 FILLER_0_15_92
*335 FILLER_0_15_94
*336 FILLER_0_16_10
*337 FILLER_0_16_101
*338 FILLER_0_16_107
*339 FILLER_0_16_111
*340 FILLER_0_16_113
*341 FILLER_0_16_131
*342 FILLER_0_16_14
*343 FILLER_0_16_147
*344 FILLER_0_16_163
*345 FILLER_0_16_171
*346 FILLER_0_16_177
*347 FILLER_0_16_185
*348 FILLER_0_16_187
*349 FILLER_0_16_2
*350 FILLER_0_16_32
*351 FILLER_0_16_34
*352 FILLER_0_16_37
*353 FILLER_0_16_53
*354 FILLER_0_16_69
*355 FILLER_0_16_85
*356 FILLER_0_16_89
*357 FILLER_0_16_93
*358 FILLER_0_17_10
*359 FILLER_0_17_107
*360 FILLER_0_17_123
*361 FILLER_0_17_139
*362 FILLER_0_17_142
*363 FILLER_0_17_150
*364 FILLER_0_17_157
*365 FILLER_0_17_173
*366 FILLER_0_17_177
*367 FILLER_0_17_179
*368 FILLER_0_17_2
*369 FILLER_0_17_34
*370 FILLER_0_17_50
*371 FILLER_0_17_61
*372 FILLER_0_17_65
*373 FILLER_0_17_69
*374 FILLER_0_17_72
*375 FILLER_0_17_80
*376 FILLER_0_17_82
*377 FILLER_0_17_90
*378 FILLER_0_17_92
*379 FILLER_0_18_10
*380 FILLER_0_18_100
*381 FILLER_0_18_102
*382 FILLER_0_18_121
*383 FILLER_0_18_137
*384 FILLER_0_18_153
*385 FILLER_0_18_169
*386 FILLER_0_18_173
*387 FILLER_0_18_177
*388 FILLER_0_18_185
*389 FILLER_0_18_187
*390 FILLER_0_18_2
*391 FILLER_0_18_31
*392 FILLER_0_18_37
*393 FILLER_0_18_53
*394 FILLER_0_18_57
*395 FILLER_0_18_59
*396 FILLER_0_18_74
*397 FILLER_0_18_92
*398 FILLER_0_19_105
*399 FILLER_0_19_109
*400 FILLER_0_19_111
*401 FILLER_0_19_125
*402 FILLER_0_19_133
*403 FILLER_0_19_137
*404 FILLER_0_19_139
*405 FILLER_0_19_142
*406 FILLER_0_19_146
*407 FILLER_0_19_153
*408 FILLER_0_19_161
*409 FILLER_0_19_177
*410 FILLER_0_19_179
*411 FILLER_0_19_18
*412 FILLER_0_19_2
*413 FILLER_0_19_21
*414 FILLER_0_19_37
*415 FILLER_0_19_45
*416 FILLER_0_19_49
*417 FILLER_0_19_51
*418 FILLER_0_19_79
*419 FILLER_0_19_89
*420 FILLER_0_1_10
*421 FILLER_0_1_103
*422 FILLER_0_1_107
*423 FILLER_0_1_111
*424 FILLER_0_1_118
*425 FILLER_0_1_134
*426 FILLER_0_1_138
*427 FILLER_0_1_146
*428 FILLER_0_1_154
*429 FILLER_0_1_158
*430 FILLER_0_1_179
*431 FILLER_0_1_183
*432 FILLER_0_1_187
*433 FILLER_0_1_2
*434 FILLER_0_1_28
*435 FILLER_0_1_32
*436 FILLER_0_1_48
*437 FILLER_0_1_52
*438 FILLER_0_1_54
*439 FILLER_0_1_61
*440 FILLER_0_1_67
*441 FILLER_0_1_69
*442 FILLER_0_1_72
*443 FILLER_0_1_88
*444 FILLER_0_1_90
*445 FILLER_0_20_10
*446 FILLER_0_20_107
*447 FILLER_0_20_111
*448 FILLER_0_20_12
*449 FILLER_0_20_126
*450 FILLER_0_20_130
*451 FILLER_0_20_137
*452 FILLER_0_20_145
*453 FILLER_0_20_149
*454 FILLER_0_20_173
*455 FILLER_0_20_183
*456 FILLER_0_20_187
*457 FILLER_0_20_2
*458 FILLER_0_20_43
*459 FILLER_0_20_51
*460 FILLER_0_20_55
*461 FILLER_0_20_57
*462 FILLER_0_20_68
*463 FILLER_0_20_75
*464 FILLER_0_20_89
*465 FILLER_0_21_101
*466 FILLER_0_21_104
*467 FILLER_0_21_11
*468 FILLER_0_21_111
*469 FILLER_0_21_119
*470 FILLER_0_21_123
*471 FILLER_0_21_131
*472 FILLER_0_21_135
*473 FILLER_0_21_138
*474 FILLER_0_21_142
*475 FILLER_0_21_144
*476 FILLER_0_21_151
*477 FILLER_0_21_159
*478 FILLER_0_21_163
*479 FILLER_0_21_178
*480 FILLER_0_21_19
*481 FILLER_0_21_2
*482 FILLER_0_21_23
*483 FILLER_0_21_31
*484 FILLER_0_21_33
*485 FILLER_0_21_36
*486 FILLER_0_21_4
*487 FILLER_0_21_44
*488 FILLER_0_21_51
*489 FILLER_0_21_67
*490 FILLER_0_21_76
*491 FILLER_0_21_84
*492 FILLER_0_21_91
*493 FILLER_0_21_99
*494 FILLER_0_2_103
*495 FILLER_0_2_118
*496 FILLER_0_2_120
*497 FILLER_0_2_132
*498 FILLER_0_2_136
*499 FILLER_0_2_144
*500 FILLER_0_2_166
*501 FILLER_0_2_168
*502 FILLER_0_2_177
*503 FILLER_0_2_179
*504 FILLER_0_2_2
*505 FILLER_0_2_32
*506 FILLER_0_2_34
*507 FILLER_0_2_37
*508 FILLER_0_2_71
*509 FILLER_0_2_75
*510 FILLER_0_2_79
*511 FILLER_0_2_81
*512 FILLER_0_3_106
*513 FILLER_0_3_110
*514 FILLER_0_3_112
*515 FILLER_0_3_126
*516 FILLER_0_3_134
*517 FILLER_0_3_138
*518 FILLER_0_3_142
*519 FILLER_0_3_158
*520 FILLER_0_3_173
*521 FILLER_0_3_181
*522 FILLER_0_3_185
*523 FILLER_0_3_187
*524 FILLER_0_3_2
*525 FILLER_0_3_32
*526 FILLER_0_3_40
*527 FILLER_0_3_42
*528 FILLER_0_3_53
*529 FILLER_0_3_55
*530 FILLER_0_3_66
*531 FILLER_0_3_72
*532 FILLER_0_3_80
*533 FILLER_0_3_84
*534 FILLER_0_3_86
*535 FILLER_0_3_98
*536 FILLER_0_4_107
*537 FILLER_0_4_123
*538 FILLER_0_4_139
*539 FILLER_0_4_155
*540 FILLER_0_4_171
*541 FILLER_0_4_177
*542 FILLER_0_4_18
*543 FILLER_0_4_185
*544 FILLER_0_4_187
*545 FILLER_0_4_2
*546 FILLER_0_4_34
*547 FILLER_0_4_37
*548 FILLER_0_4_53
*549 FILLER_0_4_65
*550 FILLER_0_4_81
*551 FILLER_0_4_97
*552 FILLER_0_5_10
*553 FILLER_0_5_104
*554 FILLER_0_5_120
*555 FILLER_0_5_136
*556 FILLER_0_5_14
*557 FILLER_0_5_142
*558 FILLER_0_5_154
*559 FILLER_0_5_162
*560 FILLER_0_5_166
*561 FILLER_0_5_178
*562 FILLER_0_5_186
*563 FILLER_0_5_2
*564 FILLER_0_5_32
*565 FILLER_0_5_36
*566 FILLER_0_5_52
*567 FILLER_0_5_68
*568 FILLER_0_5_72
*569 FILLER_0_5_88
*570 FILLER_0_6_10
*571 FILLER_0_6_102
*572 FILLER_0_6_104
*573 FILLER_0_6_114
*574 FILLER_0_6_130
*575 FILLER_0_6_138
*576 FILLER_0_6_14
*577 FILLER_0_6_162
*578 FILLER_0_6_170
*579 FILLER_0_6_174
*580 FILLER_0_6_177
*581 FILLER_0_6_179
*582 FILLER_0_6_2
*583 FILLER_0_6_20
*584 FILLER_0_6_31
*585 FILLER_0_6_37
*586 FILLER_0_6_41
*587 FILLER_0_6_57
*588 FILLER_0_6_65
*589 FILLER_0_6_67
*590 FILLER_0_6_78
*591 FILLER_0_6_94
*592 FILLER_0_7_106
*593 FILLER_0_7_128
*594 FILLER_0_7_136
*595 FILLER_0_7_142
*596 FILLER_0_7_144
*597 FILLER_0_7_166
*598 FILLER_0_7_168
*599 FILLER_0_7_175
*600 FILLER_0_7_18
*601 FILLER_0_7_183
*602 FILLER_0_7_187
*603 FILLER_0_7_2
*604 FILLER_0_7_26
*605 FILLER_0_7_28
*606 FILLER_0_7_36
*607 FILLER_0_7_40
*608 FILLER_0_7_48
*609 FILLER_0_7_52
*610 FILLER_0_7_91
*611 FILLER_0_7_95
*612 FILLER_0_8_103
*613 FILLER_0_8_107
*614 FILLER_0_8_115
*615 FILLER_0_8_131
*616 FILLER_0_8_153
*617 FILLER_0_8_159
*618 FILLER_0_8_163
*619 FILLER_0_8_167
*620 FILLER_0_8_18
*621 FILLER_0_8_187
*622 FILLER_0_8_2
*623 FILLER_0_8_22
*624 FILLER_0_8_24
*625 FILLER_0_8_47
*626 FILLER_0_8_51
*627 FILLER_0_8_59
*628 FILLER_0_8_75
*629 FILLER_0_8_91
*630 FILLER_0_8_99
*631 FILLER_0_9_10
*632 FILLER_0_9_104
*633 FILLER_0_9_120
*634 FILLER_0_9_136
*635 FILLER_0_9_14
*636 FILLER_0_9_142
*637 FILLER_0_9_152
*638 FILLER_0_9_168
*639 FILLER_0_9_176
*640 FILLER_0_9_2
*641 FILLER_0_9_26
*642 FILLER_0_9_42
*643 FILLER_0_9_58
*644 FILLER_0_9_66
*645 FILLER_0_9_72
*646 FILLER_0_9_88
*647 PHY_EDGE_ROW_0_Left_22
*648 PHY_EDGE_ROW_0_Right_0
*649 PHY_EDGE_ROW_10_Left_32
*650 PHY_EDGE_ROW_10_Right_10
*651 PHY_EDGE_ROW_11_Left_33
*652 PHY_EDGE_ROW_11_Right_11
*653 PHY_EDGE_ROW_12_Left_34
*654 PHY_EDGE_ROW_12_Right_12
*655 PHY_EDGE_ROW_13_Left_35
*656 PHY_EDGE_ROW_13_Right_13
*657 PHY_EDGE_ROW_14_Left_36
*658 PHY_EDGE_ROW_14_Right_14
*659 PHY_EDGE_ROW_15_Left_37
*660 PHY_EDGE_ROW_15_Right_15
*661 PHY_EDGE_ROW_16_Left_38
*662 PHY_EDGE_ROW_16_Right_16
*663 PHY_EDGE_ROW_17_Left_39
*664 PHY_EDGE_ROW_17_Right_17
*665 PHY_EDGE_ROW_18_Left_40
*666 PHY_EDGE_ROW_18_Right_18
*667 PHY_EDGE_ROW_19_Left_41
*668 PHY_EDGE_ROW_19_Right_19
*669 PHY_EDGE_ROW_1_Left_23
*670 PHY_EDGE_ROW_1_Right_1
*671 PHY_EDGE_ROW_20_Left_42
*672 PHY_EDGE_ROW_20_Right_20
*673 PHY_EDGE_ROW_21_Left_43
*674 PHY_EDGE_ROW_21_Right_21
*675 PHY_EDGE_ROW_2_Left_24
*676 PHY_EDGE_ROW_2_Right_2
*677 PHY_EDGE_ROW_3_Left_25
*678 PHY_EDGE_ROW_3_Right_3
*679 PHY_EDGE_ROW_4_Left_26
*680 PHY_EDGE_ROW_4_Right_4
*681 PHY_EDGE_ROW_5_Left_27
*682 PHY_EDGE_ROW_5_Right_5
*683 PHY_EDGE_ROW_6_Left_28
*684 PHY_EDGE_ROW_6_Right_6
*685 PHY_EDGE_ROW_7_Left_29
*686 PHY_EDGE_ROW_7_Right_7
*687 PHY_EDGE_ROW_8_Left_30
*688 PHY_EDGE_ROW_8_Right_8
*689 PHY_EDGE_ROW_9_Left_31
*690 PHY_EDGE_ROW_9_Right_9
*691 TAP_TAPCELL_ROW_0_44
*692 TAP_TAPCELL_ROW_0_45
*693 TAP_TAPCELL_ROW_0_46
*694 TAP_TAPCELL_ROW_0_47
*695 TAP_TAPCELL_ROW_0_48
*696 TAP_TAPCELL_ROW_10_71
*697 TAP_TAPCELL_ROW_10_72
*698 TAP_TAPCELL_ROW_10_73
*699 TAP_TAPCELL_ROW_11_74
*700 TAP_TAPCELL_ROW_11_75
*701 TAP_TAPCELL_ROW_12_76
*702 TAP_TAPCELL_ROW_12_77
*703 TAP_TAPCELL_ROW_12_78
*704 TAP_TAPCELL_ROW_13_79
*705 TAP_TAPCELL_ROW_13_80
*706 TAP_TAPCELL_ROW_14_81
*707 TAP_TAPCELL_ROW_14_82
*708 TAP_TAPCELL_ROW_14_83
*709 TAP_TAPCELL_ROW_15_84
*710 TAP_TAPCELL_ROW_15_85
*711 TAP_TAPCELL_ROW_16_86
*712 TAP_TAPCELL_ROW_16_87
*713 TAP_TAPCELL_ROW_16_88
*714 TAP_TAPCELL_ROW_17_89
*715 TAP_TAPCELL_ROW_17_90
*716 TAP_TAPCELL_ROW_18_91
*717 TAP_TAPCELL_ROW_18_92
*718 TAP_TAPCELL_ROW_18_93
*719 TAP_TAPCELL_ROW_19_94
*720 TAP_TAPCELL_ROW_19_95
*721 TAP_TAPCELL_ROW_1_49
*722 TAP_TAPCELL_ROW_1_50
*723 TAP_TAPCELL_ROW_20_96
*724 TAP_TAPCELL_ROW_20_97
*725 TAP_TAPCELL_ROW_20_98
*726 TAP_TAPCELL_ROW_21_100
*727 TAP_TAPCELL_ROW_21_101
*728 TAP_TAPCELL_ROW_21_102
*729 TAP_TAPCELL_ROW_21_103
*730 TAP_TAPCELL_ROW_21_99
*731 TAP_TAPCELL_ROW_2_51
*732 TAP_TAPCELL_ROW_2_52
*733 TAP_TAPCELL_ROW_2_53
*734 TAP_TAPCELL_ROW_3_54
*735 TAP_TAPCELL_ROW_3_55
*736 TAP_TAPCELL_ROW_4_56
*737 TAP_TAPCELL_ROW_4_57
*738 TAP_TAPCELL_ROW_4_58
*739 TAP_TAPCELL_ROW_5_59
*740 TAP_TAPCELL_ROW_5_60
*741 TAP_TAPCELL_ROW_6_61
*742 TAP_TAPCELL_ROW_6_62
*743 TAP_TAPCELL_ROW_6_63
*744 TAP_TAPCELL_ROW_7_64
*745 TAP_TAPCELL_ROW_7_65
*746 TAP_TAPCELL_ROW_8_66
*747 TAP_TAPCELL_ROW_8_67
*748 TAP_TAPCELL_ROW_8_68
*749 TAP_TAPCELL_ROW_9_69
*750 TAP_TAPCELL_ROW_9_70
*751 _102_
*752 _103_
*753 _104_
*754 _105_
*755 _106_
*756 _107_
*757 _108_
*758 _109_
*759 _110_
*760 _111_
*761 _112_
*762 _113_
*763 _114_
*764 _115_
*765 _116_
*766 _117_
*767 _118_
*768 _119_
*769 _120_
*770 _121_
*771 _122_
*772 _123_
*773 _124_
*774 _125_
*775 _126_
*776 _127_
*777 _128_
*778 _129_
*779 _130_
*780 _131_
*781 _132_
*782 _133_
*783 _134_
*784 _135_
*785 _136_
*786 _137_
*787 _138_
*788 _139_
*789 _140_
*790 _141_
*791 _142_
*792 _143_
*793 _144_
*794 _145_
*795 _146_
*796 _147_
*797 _148_
*798 _149_
*799 _150_
*800 _151_
*801 _152_
*802 _153_
*803 _154_
*804 _155_
*805 _156_
*806 _157_
*807 _158_
*808 _159_
*809 _160_
*810 _161_
*811 _162_
*812 _163_
*813 _164_
*814 _165_
*815 _166_
*816 _167_
*817 _168_
*818 _169_
*819 _170_
*820 _171_
*821 _172_
*822 _173_
*823 _174_
*824 _175_
*825 _176_
*826 _177_
*827 _178_
*828 _179_
*829 _180_
*830 _181_
*831 _182_
*832 _183_
*833 _184_
*834 _185_
*835 _186_
*836 _187_
*837 _188_
*838 _189_
*839 _190_
*840 _191_
*841 _192_
*842 _193_
*843 _194_
*844 _195_
*845 _196_
*846 _197_
*847 _198_
*848 _199_
*849 _200_
*850 _201_
*851 _202_
*852 _203_
*853 _204_
*854 _205_
*855 _206_
*856 _207_
*857 _208_
*858 _209_
*859 _210_
*860 _211_
*861 _212_
*862 _213_
*863 _214_
*864 _215_
*865 _216_
*866 _217_
*867 _218_
*868 _219_
*869 _220_
*870 _221_
*871 _222_
*872 _223_
*873 _224_
*874 _225_
*875 _226_
*876 _227_
*877 _228_
*878 _229_
*879 _230_
*880 _231_
*881 _232_
*882 _233_
*883 _234_
*884 _235_
*885 _236_
*886 _237_
*887 _238_
*888 _239_
*889 _240_
*890 _241_
*891 _242_
*892 _243_
*893 _244_
*894 _245_
*895 _246_
*896 _247_
*897 _248_
*898 _249_
*899 _250_
*900 _251_
*901 _252_
*902 _253_
*903 input1
*904 input2
*905 input3
*906 input4
*907 input5
*908 input6
*909 output10
*910 output11
*911 output12
*912 output13
*913 output14
*914 output15
*915 output16
*916 output17
*917 output7
*918 output8
*919 output9

*PORTS
clk I
io_in[0] I
io_in[1] I
io_in[2] I
io_in[3] I
io_in[4] I
io_oeb O
io_out[0] O
io_out[1] O
io_out[2] O
io_out[3] O
io_out[4] O
io_out[5] O
io_out[6] O
io_out[7] O
io_out[8] O
io_out[9] O
rst_n I

*D_NET *1 0.0026529
*CONN
*P clk I
*I *179:DIODE I *D gf180mcu_as_sc_mcu7t3v3__diode_2
*I *759:A I *D gf180mcu_as_sc_mcu7t3v3__nand2_2
*I *772:A I *D gf180mcu_as_sc_mcu7t3v3__and2_2
*I *181:DIODE I *D gf180mcu_as_sc_mcu7t3v3__diode_2
*CAP
1 clk 0.000720204
2 *179:DIODE 0.000169778
3 *759:A 0
4 *772:A 0.000162012
5 *181:DIODE 0
6 *1:24 0.000324936
7 *1:13 0.000274456
8 *1:9 0.00100151
9 *772:A *175:10 0
10 *1:13 *115:6 0
11 *1:24 *206:DIODE 0
12 *1:24 *115:6 0
13 *1:24 *175:10 0
*RES
1 clk *1:9 9.326 
2 *1:9 *1:13 0.988 
3 *1:13 *181:DIODE 4.5 
4 *1:13 *1:24 5.488 
5 *1:24 *772:A 9.988 
6 *1:24 *759:A 9 
7 *1:9 *179:DIODE 5.944 
*END

*D_NET *2 0.00172958
*CONN
*P io_in[0] I
*I *903:A I *D gf180mcu_as_sc_mcu7t3v3__buff_2
*I *201:DIODE I *D gf180mcu_as_sc_mcu7t3v3__diode_2
*CAP
1 io_in[0] 0.00040168
2 *903:A 2.21136e-05
3 *201:DIODE 5.79173e-05
4 *2:9 0.000481711
5 *201:DIODE *799:A 0
6 *201:DIODE *819:B 0.000254094
7 *201:DIODE *861:B 0.000374281
8 *903:A *861:B 5.94067e-05
9 *2:9 *861:B 7.83779e-05
*RES
1 io_in[0] *2:9 6.742 
2 *2:9 *201:DIODE 14.564 
3 *2:9 *903:A 4.728 
*END

*D_NET *3 0.00122545
*CONN
*P io_in[1] I
*I *904:A I *D gf180mcu_as_sc_mcu7t3v3__buff_2
*I *202:DIODE I *D gf180mcu_as_sc_mcu7t3v3__diode_2
*CAP
1 io_in[1] 0.00023542
2 *904:A 3.48657e-05
3 *202:DIODE 0.00019126
4 *3:5 0.000461545
5 *202:DIODE *799:C 6.57222e-06
6 *202:DIODE *800:B 5.93977e-05
7 *202:DIODE *849:A 8.90822e-05
8 *904:A *861:B 0.000147313
*RES
1 io_in[1] *3:5 1.254 
2 *3:5 *202:DIODE 10.292 
3 *3:5 *904:A 9.38 
*END

*D_NET *4 0.00195282
*CONN
*P io_in[2] I
*I *905:A I *D gf180mcu_as_sc_mcu7t3v3__buff_2
*I *203:DIODE I *D gf180mcu_as_sc_mcu7t3v3__diode_2
*CAP
1 io_in[2] 0.000239785
2 *905:A 5.05635e-05
3 *203:DIODE 0.00033835
4 *4:5 0.000628699
5 *203:DIODE *198:DIODE 0.000142925
6 *203:DIODE *849:B 0.000206333
7 *203:DIODE *850:B 4.53872e-05
8 *203:DIODE *887:B 4.47565e-05
9 *203:DIODE *115:96 1.47893e-05
10 *203:DIODE *125:21 1.55355e-05
11 *203:DIODE *153:10 0
12 *203:DIODE *153:18 2.17193e-05
13 *905:A *861:B 0.000203975
*RES
1 io_in[2] *4:5 1.254 
2 *4:5 *203:DIODE 11.508 
3 *4:5 *905:A 9.532 
*END

*D_NET *5 0.00163994
*CONN
*P io_in[3] I
*I *204:DIODE I *D gf180mcu_as_sc_mcu7t3v3__diode_2
*I *906:A I *D gf180mcu_as_sc_mcu7t3v3__buff_2
*CAP
1 io_in[3] 0.000325155
2 *204:DIODE 0.000147239
3 *906:A 0
4 *5:9 0.000472393
5 *204:DIODE *861:B 5.4634e-05
6 *204:DIODE *886:A 0.000254094
7 *5:9 *861:B 0.000386421
*RES
1 io_in[3] *5:9 6.742 
2 *5:9 *906:A 4.5 
3 *5:9 *204:DIODE 14.792 
*END

*D_NET *6 0.00111626
*CONN
*P io_in[4] I
*I *907:A I *D gf180mcu_as_sc_mcu7t3v3__buff_2
*I *205:DIODE I *D gf180mcu_as_sc_mcu7t3v3__diode_2
*CAP
1 io_in[4] 0.000407872
2 *907:A 0
3 *205:DIODE 0.000150257
4 *6:9 0.000558129
5 *6:9 *902:A 0
*RES
1 io_in[4] *6:9 6.742 
2 *6:9 *205:DIODE 14.564 
3 *6:9 *907:A 4.5 
*END

*D_NET *7 0.00214771
*CONN
*P io_oeb O
*I *917:Y O *D gf180mcu_as_sc_mcu7t3v3__buff_2
*CAP
1 io_oeb 0.000908421
2 *917:Y 0.000908421
3 io_oeb io_out[8] 0.000330865
*RES
1 *917:Y io_oeb 15.954 
*END

*D_NET *8 0.00144242
*CONN
*P io_out[0] O
*I *918:Y O *D gf180mcu_as_sc_mcu7t3v3__buff_2
*CAP
1 io_out[0] 0.00072121
2 *918:Y 0.00072121
*RES
1 *918:Y io_out[0] 9.402 
*END

*D_NET *9 0.00154923
*CONN
*P io_out[1] O
*I *919:Y O *D gf180mcu_as_sc_mcu7t3v3__buff_2
*CAP
1 io_out[1] 0.000748235
2 *919:Y 0.000748235
3 io_out[1] *919:A 5.27615e-05
*RES
1 *919:Y io_out[1] 9.554 
*END

*D_NET *10 0.00152518
*CONN
*P io_out[2] O
*I *909:Y O *D gf180mcu_as_sc_mcu7t3v3__buff_2
*CAP
1 io_out[2] 0.000762592
2 *909:Y 0.000762592
*RES
1 *909:Y io_out[2] 9.554 
*END

*D_NET *11 0.00177055
*CONN
*P io_out[3] O
*I *910:Y O *D gf180mcu_as_sc_mcu7t3v3__buff_2
*CAP
1 io_out[3] 0.000885276
2 *910:Y 0.000885276
*RES
1 *910:Y io_out[3] 11.074 
*END

*D_NET *12 0.00148811
*CONN
*P io_out[4] O
*I *911:Y O *D gf180mcu_as_sc_mcu7t3v3__buff_2
*CAP
1 io_out[4] 0.000744056
2 *911:Y 0.000744056
3 io_out[4] *897:A 0
*RES
1 *911:Y io_out[4] 9.554 
*END

*D_NET *13 0.00144242
*CONN
*P io_out[5] O
*I *912:Y O *D gf180mcu_as_sc_mcu7t3v3__buff_2
*CAP
1 io_out[5] 0.00072121
2 *912:Y 0.00072121
*RES
1 *912:Y io_out[5] 9.402 
*END

*D_NET *14 0.00151544
*CONN
*P io_out[6] O
*I *913:Y O *D gf180mcu_as_sc_mcu7t3v3__buff_2
*CAP
1 io_out[6] 0.000728024
2 *913:Y 0.000728024
3 io_out[6] *913:A 5.93977e-05
*RES
1 *913:Y io_out[6] 9.554 
*END

*D_NET *15 0.00148811
*CONN
*P io_out[7] O
*I *914:Y O *D gf180mcu_as_sc_mcu7t3v3__buff_2
*CAP
1 io_out[7] 0.000744056
2 *914:Y 0.000744056
3 io_out[7] *901:A 0
*RES
1 *914:Y io_out[7] 9.554 
*END

*D_NET *16 0.00203825
*CONN
*P io_out[8] O
*I *915:Y O *D gf180mcu_as_sc_mcu7t3v3__buff_2
*CAP
1 io_out[8] 0.000829572
2 *915:Y 0.000829572
3 io_out[8] *883:B 0
4 io_out[8] *915:A 3.0659e-05
5 io_out[8] *917:A 1.75872e-05
6 io_oeb io_out[8] 0.000330865
*RES
1 *915:Y io_out[8] 19.694 
*END

*D_NET *17 0.00137753
*CONN
*P io_out[9] O
*I *916:Y O *D gf180mcu_as_sc_mcu7t3v3__buff_2
*CAP
1 io_out[9] 0.000688766
2 *916:Y 0.000688766
*RES
1 *916:Y io_out[9] 9.022 
*END

*D_NET *18 0.001279
*CONN
*P rst_n I
*I *908:A I *D gf180mcu_as_sc_mcu7t3v3__buff_2
*I *206:DIODE I *D gf180mcu_as_sc_mcu7t3v3__diode_2
*CAP
1 rst_n 0.000395155
2 *908:A 0
3 *206:DIODE 0.000117297
4 *18:9 0.000512452
5 *206:DIODE *175:10 0.000254094
6 *1:24 *206:DIODE 0
*RES
1 rst_n *18:9 6.59 
2 *18:9 *206:DIODE 14.564 
3 *18:9 *908:A 4.5 
*END

*D_NET *21 0.0117771
*CONN
*I *829:B I *D gf180mcu_as_sc_mcu7t3v3__nand2b_2
*I *770:A I *D gf180mcu_as_sc_mcu7t3v3__buff_2
*I *822:A I *D gf180mcu_as_sc_mcu7t3v3__buff_2
*I *843:A I *D gf180mcu_as_sc_mcu7t3v3__ao21_2
*I *769:Y O *D gf180mcu_as_sc_mcu7t3v3__nand3_2
*CAP
1 *829:B 0.000476381
2 *770:A 4.52465e-05
3 *822:A 0.000494075
4 *843:A 6.25406e-05
5 *769:Y 0.000391645
6 *21:20 0.000575086
7 *21:18 0.000505304
8 *21:12 0.00130961
9 *770:A *191:DIODE 3.52792e-06
10 *822:A *771:A 5.87561e-06
11 *822:A *833:D 1.5015e-05
12 *822:A *833:A 3.60495e-05
13 *822:A *835:A 0
14 *822:A *844:D 0.000310356
15 *822:A *844:A 0.00037356
16 *822:A *22:10 0.000134206
17 *829:B *805:A 2.00784e-05
18 *829:B *833:C 0.000212922
19 *829:B *846:A 0.00120645
20 *829:B *30:23 0
21 *829:B *30:42 4.90645e-05
22 *843:A *190:DIODE 2.6126e-05
23 *843:A *191:DIODE 0.000390052
24 *843:A *837:A 5.13352e-06
25 *843:A *845:C 4.08297e-05
26 *843:A *846:D 0.000569196
27 *843:A *23:20 5.76373e-06
28 *843:A *79:72 5.22519e-05
29 *21:12 *769:A 4.69752e-05
30 *21:12 *769:B 0.000239048
31 *21:12 *776:B 0.000252871
32 *21:12 *781:B 4.71425e-05
33 *21:12 *804:B 0.000173968
34 *21:12 *818:B 0
35 *21:12 *121:12 0.00101794
36 *21:12 *134:10 6.31406e-05
37 *21:18 *191:DIODE 0.00020837
38 *21:18 *804:B 9.88736e-06
39 *21:18 *804:A 0.00012719
40 *21:18 *807:A 8.95993e-05
41 *21:18 *846:D 0.000800555
42 *21:18 *23:88 9.47964e-06
43 *21:18 *124:10 0.000101246
44 *21:18 *134:10 0.000217633
45 *21:18 *134:14 0.0001896
46 *21:18 *145:18 0.000253849
47 *21:20 *191:DIODE 0.000318572
48 *21:20 *846:D 0.000293662
*RES
1 *769:Y *21:12 18.668 
2 *21:12 *21:18 9.516 
3 *21:18 *21:20 0.836 
4 *21:20 *843:A 10.672 
5 *21:20 *822:A 13.408 
6 *21:18 *770:A 9.228 
7 *21:12 *829:B 9.136 
*END

*D_NET *22 0.00332206
*CONN
*I *825:A I *D gf180mcu_as_sc_mcu7t3v3__aoi21_2
*I *844:B I *D gf180mcu_as_sc_mcu7t3v3__ao31_2
*I *771:A I *D gf180mcu_as_sc_mcu7t3v3__buff_2
*I *837:A I *D gf180mcu_as_sc_mcu7t3v3__ao21_2
*I *770:Y O *D gf180mcu_as_sc_mcu7t3v3__buff_2
*CAP
1 *825:A 7.88651e-05
2 *844:B 0
3 *771:A 0.000366544
4 *837:A 0.000260696
5 *770:Y 0.000258952
6 *22:32 8.81376e-05
7 *22:21 0.000375816
8 *22:10 0.000519648
9 *771:A *190:DIODE 3.20741e-05
10 *771:A *843:C 4.94368e-05
11 *771:A *844:D 7.88344e-05
12 *771:A *844:C 2.6126e-05
13 *771:A *23:20 0
14 *771:A *115:50 0.000124318
15 *825:A *844:A 8.32303e-05
16 *825:A *844:C 0.000374212
17 *825:A *33:26 1.54451e-05
18 *825:A *115:50 0.000103163
19 *837:A *191:DIODE 2.26535e-05
20 *837:A *844:C 2.14818e-05
21 *837:A *845:C 0.000133373
22 *837:A *846:D 0
23 *837:A *124:10 0
24 *22:10 *191:DIODE 5.84514e-05
25 *22:10 *844:C 4.29636e-06
26 *22:10 *33:26 0
27 *22:32 *844:D 4.58601e-06
28 *22:32 *844:A 3.71024e-05
29 *22:32 *844:C 5.94067e-05
30 *822:A *771:A 5.87561e-06
31 *822:A *22:10 0.000134206
32 *843:A *837:A 5.13352e-06
*RES
1 *770:Y *22:10 10.824 
2 *22:10 *837:A 10.596 
3 *22:10 *22:21 4.5 
4 *22:21 *771:A 6.932 
5 *22:21 *22:32 0.228 
6 *22:32 *844:B 4.5 
7 *22:32 *825:A 6.02 
*END

*D_NET *23 0.018952
*CONN
*I *182:DIODE I *D gf180mcu_as_sc_mcu7t3v3__diode_2
*I *776:A I *D gf180mcu_as_sc_mcu7t3v3__and2_2
*I *868:A I *D gf180mcu_as_sc_mcu7t3v3__and2_2
*I *192:DIODE I *D gf180mcu_as_sc_mcu7t3v3__diode_2
*I *795:A I *D gf180mcu_as_sc_mcu7t3v3__and2_2
*I *184:DIODE I *D gf180mcu_as_sc_mcu7t3v3__diode_2
*I *196:DIODE I *D gf180mcu_as_sc_mcu7t3v3__diode_2
*I *880:A I *D gf180mcu_as_sc_mcu7t3v3__ao21_2
*I *771:Y O *D gf180mcu_as_sc_mcu7t3v3__buff_2
*CAP
1 *182:DIODE 0
2 *776:A 0.000204857
3 *868:A 6.20948e-05
4 *192:DIODE 8.74758e-05
5 *795:A 0.000207452
6 *184:DIODE 0
7 *196:DIODE 0
8 *880:A 7.02626e-05
9 *771:Y 0
10 *23:88 0.00125971
11 *23:70 0.00197141
12 *23:53 0.00213545
13 *23:44 0.00135439
14 *23:33 0.00128472
15 *23:20 0.000790147
16 *23:6 0.00173825
17 *192:DIODE *820:D 0
18 *776:A *804:B 6.31119e-05
19 *776:A *807:B 0.000142809
20 *776:A *137:10 9.47854e-05
21 *795:A *753:A 3.08902e-05
22 *795:A *813:A 9.94824e-05
23 *795:A *867:A 0
24 *795:A *111:8 0.000140416
25 *795:A *124:67 0.000124318
26 *795:A *138:14 0.000211744
27 *868:A *786:A 0
28 *868:A *35:17 6.63508e-06
29 *880:A *879:A 1.31444e-05
30 *880:A *880:B 0.000299332
31 *880:A *61:19 0.000131213
32 *880:A *79:22 5.43763e-05
33 *880:A *79:24 0.000315331
34 *23:20 *190:DIODE 5.14116e-06
35 *23:20 *837:B 0.000580951
36 *23:20 *845:C 0.000159789
37 *23:20 *845:B 6.87901e-06
38 *23:20 *845:A 1.81475e-05
39 *23:20 *61:19 0.000126202
40 *23:20 *79:22 0.000767339
41 *23:20 *79:72 0.000610992
42 *23:20 *124:10 0.000138445
43 *23:33 *194:DIODE 2.6126e-05
44 *23:44 *194:DIODE 0.000172411
45 *23:44 *796:A 0
46 *23:44 *813:B 0
47 *23:44 *826:A 0.000161672
48 *23:44 *837:B 0
49 *23:44 *876:B 0.000285733
50 *23:44 *876:A 1.97747e-05
51 *23:53 *813:B 0
52 *23:70 *765:A 0.000118128
53 *23:70 *765:C 0.000305711
54 *23:70 *786:A 0
55 *23:70 *794:B 0
56 *23:70 *813:A 2.07452e-05
57 *23:70 *820:D 0.000578734
58 *23:70 *842:B 7.54052e-05
59 *23:70 *31:52 0.00038242
60 *23:70 *32:12 2.22758e-05
61 *23:70 *35:17 1.30224e-05
62 *23:70 *79:12 0.000125525
63 *23:70 *111:8 0.00017656
64 *23:70 *128:18 0.000196494
65 *23:70 *133:23 5.09899e-05
66 *23:88 *804:A 1.03898e-05
67 *23:88 *807:B 0.000206791
68 *23:88 *124:10 0.000652658
69 *23:88 *134:10 0
70 *23:88 *145:18 2.75173e-05
71 *771:A *23:20 0
72 *843:A *23:20 5.76373e-06
73 *21:18 *23:88 9.47964e-06
*RES
1 *771:Y *23:6 9 
2 *23:6 *23:20 17.36 
3 *23:20 *880:A 10.672 
4 *23:20 *23:33 4.728 
5 *23:33 *196:DIODE 4.5 
6 *23:33 *23:44 8.132 
7 *23:44 *184:DIODE 4.5 
8 *23:44 *23:53 5.032 
9 *23:53 *795:A 11.356 
10 *23:53 *23:70 19.32 
11 *23:70 *192:DIODE 5.108 
12 *23:70 *868:A 4.88 
13 *23:6 *23:88 12.556 
14 *23:88 *776:A 14.944 
15 *23:88 *182:DIODE 4.5 
*END

*D_NET *24 0.00607327
*CONN
*I *781:B I *D gf180mcu_as_sc_mcu7t3v3__and2_2
*I *773:A I *D gf180mcu_as_sc_mcu7t3v3__buff_2
*I *772:Y O *D gf180mcu_as_sc_mcu7t3v3__and2_2
*CAP
1 *781:B 0.000491752
2 *773:A 0.000104904
3 *772:Y 0.0005079
4 *24:20 0.00110456
5 *773:A *769:A 0
6 *773:A *807:B 0
7 *773:A *25:25 1.99952e-05
8 *773:A *48:10 0
9 *781:B *769:A 0.000526238
10 *781:B *776:B 2.94626e-05
11 *781:B *25:25 1.29762e-05
12 *781:B *48:10 0
13 *781:B *121:12 0.000494285
14 *24:20 *769:A 0.000228573
15 *24:20 *772:B 8.77638e-05
16 *24:20 *776:B 0.000977331
17 *24:20 *862:A 0.000462714
18 *24:20 *863:A 0.000178353
19 *24:20 *25:25 0.00071754
20 *24:20 *26:16 8.1785e-05
21 *21:12 *781:B 4.71425e-05
*RES
1 *772:Y *24:20 19.656 
2 *24:20 *773:A 5.032 
3 *24:20 *781:B 17.452 
*END

*D_NET *25 0.0118359
*CONN
*I *847:A I *D gf180mcu_as_sc_mcu7t3v3__and2_2
*I *801:A I *D gf180mcu_as_sc_mcu7t3v3__and2_2
*I *775:A I *D gf180mcu_as_sc_mcu7t3v3__nand2_2
*I *804:B I *D gf180mcu_as_sc_mcu7t3v3__nor2_2
*I *773:Y O *D gf180mcu_as_sc_mcu7t3v3__buff_2
*CAP
1 *847:A 0.000656523
2 *801:A 0
3 *775:A 0.000140949
4 *804:B 0.000294493
5 *773:Y 0
6 *25:36 0.0018617
7 *25:25 0.00155535
8 *25:4 0.00050372
9 *775:A *774:A 2.40328e-06
10 *775:A *864:B 2.9378e-06
11 *775:A *27:8 5.22519e-05
12 *775:A *48:10 0
13 *804:B *776:B 0.00171206
14 *804:B *807:B 0.000784639
15 *804:B *807:A 6.66252e-06
16 *804:B *134:10 0.00010769
17 *804:B *137:10 0
18 *804:B *137:19 0
19 *847:A *762:A 4.90184e-05
20 *847:A *790:B 6.85351e-05
21 *847:A *791:B 0.000184378
22 *847:A *791:A 0.000278561
23 *847:A *850:B 6.36097e-05
24 *847:A *38:8 9.88736e-06
25 *847:A *39:8 8.55242e-05