*SPEF "ieee 1481-1999"
*DESIGN "user_project_wrapper"
*DATE "11:11:11 Fri 11 11, 1111"
*VENDOR "OpenRCX"
*PROGRAM "Parallel Extraction"
*VERSION "1.0"
*DESIGN_FLOW "NAME_SCOPE LOCAL" "PIN_CAP NONE"
*DIVIDER /
*DELIMITER :
*BUS_DELIMITER []
*T_UNIT 1 NS
*C_UNIT 1 PF
*R_UNIT 1 OHM
*L_UNIT 1 HENRY

*NAME_MAP
*1 io_in[0]
*2 io_in[10]
*3 io_in[11]
*4 io_in[12]
*5 io_in[13]
*6 io_in[14]
*7 io_in[15]
*8 io_in[16]
*9 io_in[17]
*10 io_in[18]
*11 io_in[19]
*12 io_in[1]
*13 io_in[20]
*14 io_in[21]
*15 io_in[22]
*16 io_in[23]
*17 io_in[24]
*18 io_in[25]
*19 io_in[26]
*20 io_in[27]
*21 io_in[28]
*22 io_in[29]
*23 io_in[2]
*24 io_in[30]
*25 io_in[31]
*26 io_in[32]
*27 io_in[33]
*28 io_in[34]
*29 io_in[35]
*30 io_in[36]
*31 io_in[37]
*32 io_in[3]
*33 io_in[4]
*34 io_in[5]
*35 io_in[6]
*36 io_in[7]
*37 io_in[8]
*38 io_in[9]
*39 io_oeb[0]
*40 io_oeb[10]
*41 io_oeb[11]
*42 io_oeb[12]
*43 io_oeb[13]
*44 io_oeb[14]
*45 io_oeb[15]
*46 io_oeb[16]
*47 io_oeb[17]
*48 io_oeb[18]
*49 io_oeb[19]
*50 io_oeb[1]
*51 io_oeb[20]
*52 io_oeb[21]
*53 io_oeb[22]
*54 io_oeb[23]
*55 io_oeb[24]
*56 io_oeb[25]
*57 io_oeb[26]
*58 io_oeb[27]
*59 io_oeb[28]
*60 io_oeb[29]
*61 io_oeb[2]
*62 io_oeb[30]
*63 io_oeb[31]
*64 io_oeb[32]
*65 io_oeb[33]
*66 io_oeb[34]
*67 io_oeb[35]
*68 io_oeb[36]
*69 io_oeb[37]
*70 io_oeb[3]
*71 io_oeb[4]
*72 io_oeb[5]
*73 io_oeb[6]
*74 io_oeb[7]
*75 io_oeb[8]
*76 io_oeb[9]
*77 io_out[0]
*78 io_out[10]
*79 io_out[11]
*80 io_out[12]
*81 io_out[13]
*82 io_out[14]
*83 io_out[15]
*84 io_out[16]
*85 io_out[17]
*86 io_out[18]
*87 io_out[19]
*88 io_out[1]
*89 io_out[20]
*90 io_out[21]
*91 io_out[22]
*92 io_out[23]
*93 io_out[24]
*94 io_out[25]
*95 io_out[26]
*96 io_out[27]
*97 io_out[28]
*98 io_out[29]
*99 io_out[2]
*100 io_out[30]
*101 io_out[31]
*102 io_out[32]
*103 io_out[33]
*104 io_out[34]
*105 io_out[35]
*106 io_out[36]
*107 io_out[37]
*108 io_out[3]
*109 io_out[4]
*110 io_out[5]
*111 io_out[6]
*112 io_out[7]
*113 io_out[8]
*114 io_out[9]
*115 la_data_in[0]
*116 la_data_in[10]
*117 la_data_in[11]
*118 la_data_in[12]
*119 la_data_in[13]
*120 la_data_in[14]
*121 la_data_in[15]
*122 la_data_in[16]
*123 la_data_in[17]
*124 la_data_in[18]
*125 la_data_in[19]
*126 la_data_in[1]
*127 la_data_in[20]
*128 la_data_in[21]
*129 la_data_in[22]
*130 la_data_in[23]
*131 la_data_in[24]
*132 la_data_in[25]
*133 la_data_in[26]
*134 la_data_in[27]
*135 la_data_in[28]
*136 la_data_in[29]
*137 la_data_in[2]
*138 la_data_in[30]
*139 la_data_in[31]
*140 la_data_in[32]
*141 la_data_in[33]
*142 la_data_in[34]
*143 la_data_in[35]
*144 la_data_in[36]
*145 la_data_in[37]
*146 la_data_in[38]
*147 la_data_in[39]
*148 la_data_in[3]
*149 la_data_in[40]
*150 la_data_in[41]
*151 la_data_in[42]
*152 la_data_in[43]
*153 la_data_in[44]
*154 la_data_in[45]
*155 la_data_in[46]
*156 la_data_in[47]
*157 la_data_in[48]
*158 la_data_in[49]
*159 la_data_in[4]
*160 la_data_in[50]
*161 la_data_in[51]
*162 la_data_in[52]
*163 la_data_in[53]
*164 la_data_in[54]
*165 la_data_in[55]
*166 la_data_in[56]
*167 la_data_in[57]
*168 la_data_in[58]
*169 la_data_in[59]
*170 la_data_in[5]
*171 la_data_in[60]
*172 la_data_in[61]
*173 la_data_in[62]
*174 la_data_in[63]
*175 la_data_in[6]
*176 la_data_in[7]
*177 la_data_in[8]
*178 la_data_in[9]
*179 la_data_out[0]
*180 la_data_out[10]
*181 la_data_out[11]
*182 la_data_out[12]
*183 la_data_out[13]
*184 la_data_out[14]
*185 la_data_out[15]
*186 la_data_out[16]
*187 la_data_out[17]
*188 la_data_out[18]
*189 la_data_out[19]
*190 la_data_out[1]
*191 la_data_out[20]
*192 la_data_out[21]
*193 la_data_out[22]
*194 la_data_out[23]
*195 la_data_out[24]
*196 la_data_out[25]
*197 la_data_out[26]
*198 la_data_out[27]
*199 la_data_out[28]
*200 la_data_out[29]
*201 la_data_out[2]
*202 la_data_out[30]
*203 la_data_out[31]
*204 la_data_out[32]
*205 la_data_out[33]
*206 la_data_out[34]
*207 la_data_out[35]
*208 la_data_out[36]
*209 la_data_out[37]
*210 la_data_out[38]
*211 la_data_out[39]
*212 la_data_out[3]
*213 la_data_out[40]
*214 la_data_out[41]
*215 la_data_out[42]
*216 la_data_out[43]
*217 la_data_out[44]
*218 la_data_out[45]
*219 la_data_out[46]
*220 la_data_out[47]
*221 la_data_out[48]
*222 la_data_out[49]
*223 la_data_out[4]
*224 la_data_out[50]
*225 la_data_out[51]
*226 la_data_out[52]
*227 la_data_out[53]
*228 la_data_out[54]
*229 la_data_out[55]
*230 la_data_out[56]
*231 la_data_out[57]
*232 la_data_out[58]
*233 la_data_out[59]
*234 la_data_out[5]
*235 la_data_out[60]
*236 la_data_out[61]
*237 la_data_out[62]
*238 la_data_out[63]
*239 la_data_out[6]
*240 la_data_out[7]
*241 la_data_out[8]
*242 la_data_out[9]
*243 la_oenb[0]
*244 la_oenb[10]
*245 la_oenb[11]
*246 la_oenb[12]
*247 la_oenb[13]
*248 la_oenb[14]
*249 la_oenb[15]
*250 la_oenb[16]
*251 la_oenb[17]
*252 la_oenb[18]
*253 la_oenb[19]
*254 la_oenb[1]
*255 la_oenb[20]
*256 la_oenb[21]
*257 la_oenb[22]
*258 la_oenb[23]
*259 la_oenb[24]
*260 la_oenb[25]
*261 la_oenb[26]
*262 la_oenb[27]
*263 la_oenb[28]
*264 la_oenb[29]
*265 la_oenb[2]
*266 la_oenb[30]
*267 la_oenb[31]
*268 la_oenb[32]
*269 la_oenb[33]
*270 la_oenb[34]
*271 la_oenb[35]
*272 la_oenb[36]
*273 la_oenb[37]
*274 la_oenb[38]
*275 la_oenb[39]
*276 la_oenb[3]
*277 la_oenb[40]
*278 la_oenb[41]
*279 la_oenb[42]
*280 la_oenb[43]
*281 la_oenb[44]
*282 la_oenb[45]
*283 la_oenb[46]
*284 la_oenb[47]
*285 la_oenb[48]
*286 la_oenb[49]
*287 la_oenb[4]
*288 la_oenb[50]
*289 la_oenb[51]
*290 la_oenb[52]
*291 la_oenb[53]
*292 la_oenb[54]
*293 la_oenb[55]
*294 la_oenb[56]
*295 la_oenb[57]
*296 la_oenb[58]
*297 la_oenb[59]
*298 la_oenb[5]
*299 la_oenb[60]
*300 la_oenb[61]
*301 la_oenb[62]
*302 la_oenb[63]
*303 la_oenb[6]
*304 la_oenb[7]
*305 la_oenb[8]
*306 la_oenb[9]
*307 user_clock2
*308 user_irq[0]
*309 user_irq[1]
*310 user_irq[2]
*313 wb_clk_i
*314 wb_rst_i
*315 wbs_ack_o
*316 wbs_adr_i[0]
*317 wbs_adr_i[10]
*318 wbs_adr_i[11]
*319 wbs_adr_i[12]
*320 wbs_adr_i[13]
*321 wbs_adr_i[14]
*322 wbs_adr_i[15]
*323 wbs_adr_i[16]
*324 wbs_adr_i[17]
*325 wbs_adr_i[18]
*326 wbs_adr_i[19]
*327 wbs_adr_i[1]
*328 wbs_adr_i[20]
*329 wbs_adr_i[21]
*330 wbs_adr_i[22]
*331 wbs_adr_i[23]
*332 wbs_adr_i[24]
*333 wbs_adr_i[25]
*334 wbs_adr_i[26]
*335 wbs_adr_i[27]
*336 wbs_adr_i[28]
*337 wbs_adr_i[29]
*338 wbs_adr_i[2]
*339 wbs_adr_i[30]
*340 wbs_adr_i[31]
*341 wbs_adr_i[3]
*342 wbs_adr_i[4]
*343 wbs_adr_i[5]
*344 wbs_adr_i[6]
*345 wbs_adr_i[7]
*346 wbs_adr_i[8]
*347 wbs_adr_i[9]
*348 wbs_cyc_i
*349 wbs_dat_i[0]
*350 wbs_dat_i[10]
*351 wbs_dat_i[11]
*352 wbs_dat_i[12]
*353 wbs_dat_i[13]
*354 wbs_dat_i[14]
*355 wbs_dat_i[15]
*356 wbs_dat_i[16]
*357 wbs_dat_i[17]
*358 wbs_dat_i[18]
*359 wbs_dat_i[19]
*360 wbs_dat_i[1]
*361 wbs_dat_i[20]
*362 wbs_dat_i[21]
*363 wbs_dat_i[22]
*364 wbs_dat_i[23]
*365 wbs_dat_i[24]
*366 wbs_dat_i[25]
*367 wbs_dat_i[26]
*368 wbs_dat_i[27]
*369 wbs_dat_i[28]
*370 wbs_dat_i[29]
*371 wbs_dat_i[2]
*372 wbs_dat_i[30]
*373 wbs_dat_i[31]
*374 wbs_dat_i[3]
*375 wbs_dat_i[4]
*376 wbs_dat_i[5]
*377 wbs_dat_i[6]
*378 wbs_dat_i[7]
*379 wbs_dat_i[8]
*380 wbs_dat_i[9]
*381 wbs_dat_o[0]
*382 wbs_dat_o[10]
*383 wbs_dat_o[11]
*384 wbs_dat_o[12]
*385 wbs_dat_o[13]
*386 wbs_dat_o[14]
*387 wbs_dat_o[15]
*388 wbs_dat_o[16]
*389 wbs_dat_o[17]
*390 wbs_dat_o[18]
*391 wbs_dat_o[19]
*392 wbs_dat_o[1]
*393 wbs_dat_o[20]
*394 wbs_dat_o[21]
*395 wbs_dat_o[22]
*396 wbs_dat_o[23]
*397 wbs_dat_o[24]
*398 wbs_dat_o[25]
*399 wbs_dat_o[26]
*400 wbs_dat_o[27]
*401 wbs_dat_o[28]
*402 wbs_dat_o[29]
*403 wbs_dat_o[2]
*404 wbs_dat_o[30]
*405 wbs_dat_o[31]
*406 wbs_dat_o[3]
*407 wbs_dat_o[4]
*408 wbs_dat_o[5]
*409 wbs_dat_o[6]
*410 wbs_dat_o[7]
*411 wbs_dat_o[8]
*412 wbs_dat_o[9]
*413 wbs_sel_i[0]
*414 wbs_sel_i[1]
*415 wbs_sel_i[2]
*416 wbs_sel_i[3]
*417 wbs_stb_i
*418 wbs_we_i
*419 ay8913_do\[0\]
*420 ay8913_do\[10\]
*421 ay8913_do\[11\]
*422 ay8913_do\[12\]
*423 ay8913_do\[13\]
*424 ay8913_do\[14\]
*425 ay8913_do\[15\]
*426 ay8913_do\[16\]
*427 ay8913_do\[17\]
*428 ay8913_do\[18\]
*429 ay8913_do\[19\]
*430 ay8913_do\[1\]
*431 ay8913_do\[20\]
*432 ay8913_do\[21\]
*433 ay8913_do\[22\]
*434 ay8913_do\[23\]
*435 ay8913_do\[24\]
*436 ay8913_do\[25\]
*437 ay8913_do\[26\]
*438 ay8913_do\[27\]
*439 ay8913_do\[2\]
*440 ay8913_do\[3\]
*441 ay8913_do\[4\]
*442 ay8913_do\[5\]
*443 ay8913_do\[6\]
*444 ay8913_do\[7\]
*445 ay8913_do\[8\]
*446 ay8913_do\[9\]
*447 blinker_do\[0\]
*448 blinker_do\[1\]
*449 blinker_do\[2\]
*450 custom_settings\[0\]
*451 custom_settings\[10\]
*452 custom_settings\[11\]
*453 custom_settings\[12\]
*454 custom_settings\[13\]
*455 custom_settings\[14\]
*456 custom_settings\[15\]
*457 custom_settings\[16\]
*458 custom_settings\[17\]
*459 custom_settings\[18\]
*460 custom_settings\[19\]
*461 custom_settings\[1\]
*462 custom_settings\[20\]
*463 custom_settings\[21\]
*464 custom_settings\[22\]
*465 custom_settings\[23\]
*466 custom_settings\[24\]
*467 custom_settings\[25\]
*468 custom_settings\[26\]
*469 custom_settings\[27\]
*470 custom_settings\[28\]
*471 custom_settings\[29\]
*472 custom_settings\[2\]
*473 custom_settings\[30\]
*474 custom_settings\[31\]
*475 custom_settings\[3\]
*476 custom_settings\[4\]
*477 custom_settings\[5\]
*478 custom_settings\[6\]
*479 custom_settings\[7\]
*480 custom_settings\[8\]
*481 custom_settings\[9\]
*482 hellorld_do
*483 mc14500_do\[0\]
*484 mc14500_do\[10\]
*485 mc14500_do\[11\]
*486 mc14500_do\[12\]
*487 mc14500_do\[13\]
*488 mc14500_do\[14\]
*489 mc14500_do\[15\]
*490 mc14500_do\[16\]
*491 mc14500_do\[17\]
*492 mc14500_do\[18\]
*493 mc14500_do\[19\]
*494 mc14500_do\[1\]
*495 mc14500_do\[20\]
*496 mc14500_do\[21\]
*497 mc14500_do\[22\]
*498 mc14500_do\[23\]
*499 mc14500_do\[24\]
*500 mc14500_do\[25\]
*501 mc14500_do\[26\]
*502 mc14500_do\[27\]
*503 mc14500_do\[28\]
*504 mc14500_do\[29\]
*505 mc14500_do\[2\]
*506 mc14500_do\[30\]
*507 mc14500_do\[3\]
*508 mc14500_do\[4\]
*509 mc14500_do\[5\]
*510 mc14500_do\[6\]
*511 mc14500_do\[7\]
*512 mc14500_do\[8\]
*513 mc14500_do\[9\]
*514 mc14500_sram_addr\[0\]
*515 mc14500_sram_addr\[1\]
*516 mc14500_sram_addr\[2\]
*517 mc14500_sram_addr\[3\]
*518 mc14500_sram_addr\[4\]
*519 mc14500_sram_addr\[5\]
*520 mc14500_sram_gwe
*521 mc14500_sram_in\[0\]
*522 mc14500_sram_in\[1\]
*523 mc14500_sram_in\[2\]
*524 mc14500_sram_in\[3\]
*525 mc14500_sram_in\[4\]
*526 mc14500_sram_in\[5\]
*527 mc14500_sram_in\[6\]
*528 mc14500_sram_in\[7\]
*529 pdp11_do\[0\]
*530 pdp11_do\[10\]
*531 pdp11_do\[11\]
*532 pdp11_do\[12\]
*533 pdp11_do\[13\]
*534 pdp11_do\[14\]
*535 pdp11_do\[15\]
*536 pdp11_do\[16\]
*537 pdp11_do\[17\]
*538 pdp11_do\[18\]
*539 pdp11_do\[19\]
*540 pdp11_do\[1\]
*541 pdp11_do\[20\]
*542 pdp11_do\[21\]
*543 pdp11_do\[22\]
*544 pdp11_do\[23\]
*545 pdp11_do\[24\]
*546 pdp11_do\[25\]
*547 pdp11_do\[26\]
*548 pdp11_do\[27\]
*549 pdp11_do\[28\]
*550 pdp11_do\[29\]
*551 pdp11_do\[2\]
*552 pdp11_do\[30\]
*553 pdp11_do\[31\]
*554 pdp11_do\[32\]
*555 pdp11_do\[3\]
*556 pdp11_do\[4\]
*557 pdp11_do\[5\]
*558 pdp11_do\[6\]
*559 pdp11_do\[7\]
*560 pdp11_do\[8\]
*561 pdp11_do\[9\]
*562 pdp11_oeb\[0\]
*563 pdp11_oeb\[10\]
*564 pdp11_oeb\[11\]
*565 pdp11_oeb\[12\]
*566 pdp11_oeb\[13\]
*567 pdp11_oeb\[14\]
*568 pdp11_oeb\[15\]
*569 pdp11_oeb\[16\]
*570 pdp11_oeb\[17\]
*571 pdp11_oeb\[18\]
*572 pdp11_oeb\[19\]
*573 pdp11_oeb\[1\]
*574 pdp11_oeb\[20\]
*575 pdp11_oeb\[21\]
*576 pdp11_oeb\[22\]
*577 pdp11_oeb\[23\]
*578 pdp11_oeb\[24\]
*579 pdp11_oeb\[25\]
*580 pdp11_oeb\[26\]
*581 pdp11_oeb\[27\]
*582 pdp11_oeb\[28\]
*583 pdp11_oeb\[29\]
*584 pdp11_oeb\[2\]
*585 pdp11_oeb\[30\]
*586 pdp11_oeb\[31\]
*587 pdp11_oeb\[32\]
*588 pdp11_oeb\[3\]
*589 pdp11_oeb\[4\]
*590 pdp11_oeb\[5\]
*591 pdp11_oeb\[6\]
*592 pdp11_oeb\[7\]
*593 pdp11_oeb\[8\]
*594 pdp11_oeb\[9\]
*595 qcpu_do\[0\]
*596 qcpu_do\[10\]
*597 qcpu_do\[11\]
*598 qcpu_do\[12\]
*599 qcpu_do\[13\]
*600 qcpu_do\[14\]
*601 qcpu_do\[15\]
*602 qcpu_do\[16\]
*603 qcpu_do\[17\]
*604 qcpu_do\[18\]
*605 qcpu_do\[19\]
*606 qcpu_do\[1\]
*607 qcpu_do\[20\]
*608 qcpu_do\[21\]
*609 qcpu_do\[22\]
*610 qcpu_do\[23\]
*611 qcpu_do\[24\]
*612 qcpu_do\[25\]
*613 qcpu_do\[26\]
*614 qcpu_do\[27\]
*615 qcpu_do\[28\]
*616 qcpu_do\[29\]
*617 qcpu_do\[2\]
*618 qcpu_do\[30\]
*619 qcpu_do\[31\]
*620 qcpu_do\[32\]
*621 qcpu_do\[3\]
*622 qcpu_do\[4\]
*623 qcpu_do\[5\]
*624 qcpu_do\[6\]
*625 qcpu_do\[7\]
*626 qcpu_do\[8\]
*627 qcpu_do\[9\]
*628 qcpu_oeb\[0\]
*629 qcpu_oeb\[10\]
*630 qcpu_oeb\[11\]
*631 qcpu_oeb\[12\]
*632 qcpu_oeb\[13\]
*633 qcpu_oeb\[14\]
*634 qcpu_oeb\[15\]
*635 qcpu_oeb\[16\]
*636 qcpu_oeb\[17\]
*637 qcpu_oeb\[18\]
*638 qcpu_oeb\[19\]
*639 qcpu_oeb\[1\]
*640 qcpu_oeb\[20\]
*641 qcpu_oeb\[21\]
*642 qcpu_oeb\[22\]
*643 qcpu_oeb\[23\]
*644 qcpu_oeb\[24\]
*645 qcpu_oeb\[25\]
*646 qcpu_oeb\[26\]
*647 qcpu_oeb\[27\]
*648 qcpu_oeb\[28\]
*649 qcpu_oeb\[29\]
*650 qcpu_oeb\[2\]
*651 qcpu_oeb\[30\]
*652 qcpu_oeb\[31\]
*653 qcpu_oeb\[32\]
*654 qcpu_oeb\[3\]
*655 qcpu_oeb\[4\]
*656 qcpu_oeb\[5\]
*657 qcpu_oeb\[6\]
*658 qcpu_oeb\[7\]
*659 qcpu_oeb\[8\]
*660 qcpu_oeb\[9\]
*661 qcpu_sram_addr\[0\]
*662 qcpu_sram_addr\[1\]
*663 qcpu_sram_addr\[2\]
*664 qcpu_sram_addr\[3\]
*665 qcpu_sram_addr\[4\]
*666 qcpu_sram_addr\[5\]
*667 qcpu_sram_gwe
*668 qcpu_sram_in\[0\]
*669 qcpu_sram_in\[1\]
*670 qcpu_sram_in\[2\]
*671 qcpu_sram_in\[3\]
*672 qcpu_sram_in\[4\]
*673 qcpu_sram_in\[5\]
*674 qcpu_sram_in\[6\]
*675 qcpu_sram_in\[7\]
*676 qcpu_sram_out\[0\]
*677 qcpu_sram_out\[1\]
*678 qcpu_sram_out\[2\]
*679 qcpu_sram_out\[3\]
*680 qcpu_sram_out\[4\]
*681 qcpu_sram_out\[5\]
*682 qcpu_sram_out\[6\]
*683 qcpu_sram_out\[7\]
*684 rst_ay8913
*685 rst_blinker
*686 rst_hellorld
*687 rst_mc14500
*688 rst_pdp11
*689 rst_qcpu
*690 rst_sid
*691 rst_sn76489
*692 rst_tbb1143
*693 sid_do\[0\]
*694 sid_do\[10\]
*695 sid_do\[11\]
*696 sid_do\[12\]
*697 sid_do\[13\]
*698 sid_do\[14\]
*699 sid_do\[15\]
*700 sid_do\[16\]
*701 sid_do\[17\]
*702 sid_do\[18\]
*703 sid_do\[19\]
*704 sid_do\[1\]
*705 sid_do\[20\]
*706 sid_do\[2\]
*707 sid_do\[3\]
*708 sid_do\[4\]
*709 sid_do\[5\]
*710 sid_do\[6\]
*711 sid_do\[7\]
*712 sid_do\[8\]
*713 sid_do\[9\]
*714 sid_oeb
*715 sn76489_do\[0\]
*716 sn76489_do\[10\]
*717 sn76489_do\[11\]
*718 sn76489_do\[12\]
*719 sn76489_do\[13\]
*720 sn76489_do\[14\]
*721 sn76489_do\[15\]
*722 sn76489_do\[16\]
*723 sn76489_do\[17\]
*724 sn76489_do\[18\]
*725 sn76489_do\[19\]
*726 sn76489_do\[1\]
*727 sn76489_do\[20\]
*728 sn76489_do\[21\]
*729 sn76489_do\[22\]
*730 sn76489_do\[23\]
*731 sn76489_do\[24\]
*732 sn76489_do\[25\]
*733 sn76489_do\[26\]
*734 sn76489_do\[27\]
*735 sn76489_do\[2\]
*736 sn76489_do\[3\]
*737 sn76489_do\[4\]
*738 sn76489_do\[5\]
*739 sn76489_do\[6\]
*740 sn76489_do\[7\]
*741 sn76489_do\[8\]
*742 sn76489_do\[9\]
*743 tbb1143_do\[0\]
*744 tbb1143_do\[1\]
*745 tbb1143_do\[2\]
*746 tbb1143_do\[3\]
*747 tbb1143_do\[4\]
*748 avali_logo
*749 ay8913
*750 blinker
*751 hellorld
*752 mc14500
*753 multiplexer
*754 sid
*755 tbb1143
*756 wrapped_pdp11
*757 wrapped_qcpu
*758 wrapped_sn76489

*PORTS
io_in[0] I
io_in[10] I
io_in[11] I
io_in[12] I
io_in[13] I
io_in[14] I
io_in[15] I
io_in[16] I
io_in[17] I
io_in[18] I
io_in[19] I
io_in[1] I
io_in[20] I
io_in[21] I
io_in[22] I
io_in[23] I
io_in[24] I
io_in[25] I
io_in[26] I
io_in[27] I
io_in[28] I
io_in[29] I
io_in[2] I
io_in[30] I
io_in[31] I
io_in[32] I
io_in[33] I
io_in[34] I
io_in[35] I
io_in[36] I
io_in[37] I
io_in[3] I
io_in[4] I
io_in[5] I
io_in[6] I
io_in[7] I
io_in[8] I
io_in[9] I
io_oeb[0] O
io_oeb[10] O
io_oeb[11] O
io_oeb[12] O
io_oeb[13] O
io_oeb[14] O
io_oeb[15] O
io_oeb[16] O
io_oeb[17] O
io_oeb[18] O
io_oeb[19] O
io_oeb[1] O
io_oeb[20] O
io_oeb[21] O
io_oeb[22] O
io_oeb[23] O
io_oeb[24] O
io_oeb[25] O
io_oeb[26] O
io_oeb[27] O
io_oeb[28] O
io_oeb[29] O
io_oeb[2] O
io_oeb[30] O
io_oeb[31] O
io_oeb[32] O
io_oeb[33] O
io_oeb[34] O
io_oeb[35] O
io_oeb[36] O
io_oeb[37] O
io_oeb[3] O
io_oeb[4] O
io_oeb[5] O
io_oeb[6] O
io_oeb[7] O
io_oeb[8] O
io_oeb[9] O
io_out[0] O
io_out[10] O
io_out[11] O
io_out[12] O
io_out[13] O
io_out[14] O
io_out[15] O
io_out[16] O
io_out[17] O
io_out[18] O
io_out[19] O
io_out[1] O
io_out[20] O
io_out[21] O
io_out[22] O
io_out[23] O
io_out[24] O
io_out[25] O
io_out[26] O
io_out[27] O
io_out[28] O
io_out[29] O
io_out[2] O
io_out[30] O
io_out[31] O
io_out[32] O
io_out[33] O
io_out[34] O
io_out[35] O
io_out[36] O
io_out[37] O
io_out[3] O
io_out[4] O
io_out[5] O
io_out[6] O
io_out[7] O
io_out[8] O
io_out[9] O
la_data_in[0] I
la_data_in[10] I
la_data_in[11] I
la_data_in[12] I
la_data_in[13] I
la_data_in[14] I
la_data_in[15] I
la_data_in[16] I
la_data_in[17] I
la_data_in[18] I
la_data_in[19] I
la_data_in[1] I
la_data_in[20] I
la_data_in[21] I
la_data_in[22] I
la_data_in[23] I
la_data_in[24] I
la_data_in[25] I
la_data_in[26] I
la_data_in[27] I
la_data_in[28] I
la_data_in[29] I
la_data_in[2] I
la_data_in[30] I
la_data_in[31] I
la_data_in[32] I
la_data_in[33] I
la_data_in[34] I
la_data_in[35] I
la_data_in[36] I
la_data_in[37] I
la_data_in[38] I
la_data_in[39] I
la_data_in[3] I
la_data_in[40] I
la_data_in[41] I
la_data_in[42] I
la_data_in[43] I
la_data_in[44] I
la_data_in[45] I
la_data_in[46] I
la_data_in[47] I
la_data_in[48] I
la_data_in[49] I
la_data_in[4] I
la_data_in[50] I
la_data_in[51] I
la_data_in[52] I
la_data_in[53] I
la_data_in[54] I
la_data_in[55] I
la_data_in[56] I
la_data_in[57] I
la_data_in[58] I
la_data_in[59] I
la_data_in[5] I
la_data_in[60] I
la_data_in[61] I
la_data_in[62] I
la_data_in[63] I
la_data_in[6] I
la_data_in[7] I
la_data_in[8] I
la_data_in[9] I
la_data_out[0] O
la_data_out[10] O
la_data_out[11] O
la_data_out[12] O
la_data_out[13] O
la_data_out[14] O
la_data_out[15] O
la_data_out[16] O
la_data_out[17] O
la_data_out[18] O
la_data_out[19] O
la_data_out[1] O
la_data_out[20] O
la_data_out[21] O
la_data_out[22] O
la_data_out[23] O
la_data_out[24] O
la_data_out[25] O
la_data_out[26] O
la_data_out[27] O
la_data_out[28] O
la_data_out[29] O
la_data_out[2] O
la_data_out[30] O
la_data_out[31] O
la_data_out[32] O
la_data_out[33] O
la_data_out[34] O
la_data_out[35] O
la_data_out[36] O
la_data_out[37] O
la_data_out[38] O
la_data_out[39] O
la_data_out[3] O
la_data_out[40] O
la_data_out[41] O
la_data_out[42] O
la_data_out[43] O
la_data_out[44] O
la_data_out[45] O
la_data_out[46] O
la_data_out[47] O
la_data_out[48] O
la_data_out[49] O
la_data_out[4] O
la_data_out[50] O
la_data_out[51] O
la_data_out[52] O
la_data_out[53] O
la_data_out[54] O
la_data_out[55] O
la_data_out[56] O
la_data_out[57] O
la_data_out[58] O
la_data_out[59] O
la_data_out[5] O
la_data_out[60] O
la_data_out[61] O
la_data_out[62] O
la_data_out[63] O
la_data_out[6] O
la_data_out[7] O
la_data_out[8] O
la_data_out[9] O
la_oenb[0] I
la_oenb[10] I
la_oenb[11] I
la_oenb[12] I
la_oenb[13] I
la_oenb[14] I
la_oenb[15] I
la_oenb[16] I
la_oenb[17] I
la_oenb[18] I
la_oenb[19] I
la_oenb[1] I
la_oenb[20] I
la_oenb[21] I
la_oenb[22] I
la_oenb[23] I
la_oenb[24] I
la_oenb[25] I
la_oenb[26] I
la_oenb[27] I
la_oenb[28] I
la_oenb[29] I
la_oenb[2] I
la_oenb[30] I
la_oenb[31] I
la_oenb[32] I
la_oenb[33] I
la_oenb[34] I
la_oenb[35] I
la_oenb[36] I
la_oenb[37] I
la_oenb[38] I
la_oenb[39] I
la_oenb[3] I
la_oenb[40] I
la_oenb[41] I
la_oenb[42] I
la_oenb[43] I
la_oenb[44] I
la_oenb[45] I
la_oenb[46] I
la_oenb[47] I
la_oenb[48] I
la_oenb[49] I
la_oenb[4] I
la_oenb[50] I
la_oenb[51] I
la_oenb[52] I
la_oenb[53] I
la_oenb[54] I
la_oenb[55] I
la_oenb[56] I
la_oenb[57] I
la_oenb[58] I
la_oenb[59] I
la_oenb[5] I
la_oenb[60] I
la_oenb[61] I
la_oenb[62] I
la_oenb[63] I
la_oenb[6] I
la_oenb[7] I
la_oenb[8] I
la_oenb[9] I
user_clock2 I
user_irq[0] O
user_irq[1] O
user_irq[2] O
wb_clk_i I
wb_rst_i I
wbs_ack_o O
wbs_adr_i[0] I
wbs_adr_i[10] I
wbs_adr_i[11] I
wbs_adr_i[12] I
wbs_adr_i[13] I
wbs_adr_i[14] I
wbs_adr_i[15] I
wbs_adr_i[16] I
wbs_adr_i[17] I
wbs_adr_i[18] I
wbs_adr_i[19] I
wbs_adr_i[1] I
wbs_adr_i[20] I
wbs_adr_i[21] I
wbs_adr_i[22] I
wbs_adr_i[23] I
wbs_adr_i[24] I
wbs_adr_i[25] I
wbs_adr_i[26] I
wbs_adr_i[27] I
wbs_adr_i[28] I
wbs_adr_i[29] I
wbs_adr_i[2] I
wbs_adr_i[30] I
wbs_adr_i[31] I
wbs_adr_i[3] I
wbs_adr_i[4] I
wbs_adr_i[5] I
wbs_adr_i[6] I
wbs_adr_i[7] I
wbs_adr_i[8] I
wbs_adr_i[9] I
wbs_cyc_i I
wbs_dat_i[0] I
wbs_dat_i[10] I
wbs_dat_i[11] I
wbs_dat_i[12] I
wbs_dat_i[13] I
wbs_dat_i[14] I
wbs_dat_i[15] I
wbs_dat_i[16] I
wbs_dat_i[17] I
wbs_dat_i[18] I
wbs_dat_i[19] I
wbs_dat_i[1] I
wbs_dat_i[20] I
wbs_dat_i[21] I
wbs_dat_i[22] I
wbs_dat_i[23] I
wbs_dat_i[24] I
wbs_dat_i[25] I
wbs_dat_i[26] I
wbs_dat_i[27] I
wbs_dat_i[28] I
wbs_dat_i[29] I
wbs_dat_i[2] I
wbs_dat_i[30] I
wbs_dat_i[31] I
wbs_dat_i[3] I
wbs_dat_i[4] I
wbs_dat_i[5] I
wbs_dat_i[6] I
wbs_dat_i[7] I
wbs_dat_i[8] I
wbs_dat_i[9] I
wbs_dat_o[0] O
wbs_dat_o[10] O
wbs_dat_o[11] O
wbs_dat_o[12] O
wbs_dat_o[13] O
wbs_dat_o[14] O
wbs_dat_o[15] O
wbs_dat_o[16] O
wbs_dat_o[17] O
wbs_dat_o[18] O
wbs_dat_o[19] O
wbs_dat_o[1] O
wbs_dat_o[20] O
wbs_dat_o[21] O
wbs_dat_o[22] O
wbs_dat_o[23] O
wbs_dat_o[24] O
wbs_dat_o[25] O
wbs_dat_o[26] O
wbs_dat_o[27] O
wbs_dat_o[28] O
wbs_dat_o[29] O
wbs_dat_o[2] O
wbs_dat_o[30] O
wbs_dat_o[31] O
wbs_dat_o[3] O
wbs_dat_o[4] O
wbs_dat_o[5] O
wbs_dat_o[6] O
wbs_dat_o[7] O
wbs_dat_o[8] O
wbs_dat_o[9] O
wbs_sel_i[0] I
wbs_sel_i[1] I
wbs_sel_i[2] I
wbs_sel_i[3] I
wbs_stb_i I
wbs_we_i I

*D_NET *1 0.663732
*CONN
*P io_in[0] I
*I *753:io_in_0 I *D multiplexer
*CAP
1 io_in[0] 0.00612009
2 *753:io_in_0 0.00024862
3 *1:17 0.0160886
4 *1:15 0.01584
5 *1:13 0.00644964
6 *1:11 0.00644964
7 *1:9 0.04728
8 *1:7 0.04728
9 *1:5 0.00612009
10 *753:io_in_0 *16:21 0.000417527
11 *753:io_in_0 *41:9 0
12 *753:io_in_0 *101:6 0.000226498
13 *753:io_in_0 *424:17 0
14 *1:9 *757:sram_out[2] 0.00177925
15 *1:9 *646:9 0.0102013
16 *1:9 *665:9 0
17 *1:9 *668:9 0
18 *1:9 *671:11 0.000504432
19 *1:13 *50:13 0.209642
20 *1:13 *605:9 0.00497227
21 *1:13 *687:13 0.18016
22 *1:17 *16:21 7.40949e-05
23 *1:17 *22:15 0.000310722
24 *1:17 *41:9 0
25 *1:17 *70:9 0
26 *1:17 *72:9 0.00453835
27 *1:17 *75:11 0.0108681
28 *1:17 *424:13 0.00149785
29 *1:17 *449:21 0.0161826
30 *1:17 *489:13 0.000120481
31 *1:17 *501:13 0.0114813
32 *1:17 *703:17 0.0588782
*RES
1 io_in[0] *1:5 48.825 
2 *1:5 *1:7 4.5 
3 *1:7 *1:9 368.91 
4 *1:9 *1:11 4.5 
5 *1:11 *1:13 529.47 
6 *1:13 *1:15 4.5 
7 *1:15 *1:17 238.14 
8 *1:17 *753:io_in_0 11.16 
*END

*D_NET *2 0.898234
*CONN
*P io_in[10] I
*I *754:io_in[5] I *D wrapped_sid
*I *758:io_in_1[5] I *D wrapped_sn76489
*I *757:io_in[5] I *D wrapped_qcpu
*I *752:io_in[5] I *D wrapped_mc14500
*I *756:io_in[5] I *D wrapped_pdp11
*I *749:io_in_1[5] I *D wrapped_ay8913
*I *755:io_in[5] I *D tholin_avalonsemi_tbb1143
*CAP
1 io_in[10] 0.0122026
2 *754:io_in[5] 0.00279434
3 *758:io_in_1[5] 0.000117181
4 *757:io_in[5] 0.000481347
5 *752:io_in[5] 0.000361104
6 *756:io_in[5] 0.00181205
7 *749:io_in_1[5] 0.00229278
8 *755:io_in[5] 0.000301228
9 *2:117 0.00479958
10 *2:115 0.00200524
11 *2:113 0.0042923
12 *2:111 0.0042923
13 *2:101 0.00654257
14 *2:99 0.00642539
15 *2:97 0.0136997
16 *2:95 0.0140487
17 *2:83 0.0119737
18 *2:81 0.0111434
19 *2:79 0.00491176
20 *2:77 0.00718978
21 *2:63 0.00294137
22 *2:59 0.0205409
23 *2:57 0.0202387
24 *2:35 0.0191374
25 *2:33 0.0168447
26 *2:31 0.00736912
27 *2:29 0.00736912
28 *2:19 0.00580532
29 *2:15 0.017286
30 *2:13 0.013594
31 *2:11 0.029917
32 *2:9 0.0314196
33 *2:5 0.0137052
34 *749:io_in_1[5] *427:25 0.00792692
35 *754:io_in[5] *754:io_in[6] 0.00916823
36 *754:io_in[5] *388:17 0.000601066
37 *2:5 *40:13 0.00361553
38 *2:5 *41:13 0
39 *2:5 *78:9 0.0089228
40 *2:5 *81:9 0
41 *2:5 *549:9 0.000456146
42 *2:5 *580:13 0
43 *2:9 *40:13 0.000907286
44 *2:9 *78:9 0.00250496
45 *2:9 *549:9 0.00202213
46 *2:11 io_out[28] 0.00507953
47 *2:11 *78:9 0
48 *2:11 *459:10 0.0258368
49 *2:11 *538:9 0.0773136
50 *2:11 *549:9 0.00976801
51 *2:15 *499:13 0.00156538
52 *2:15 *506:13 0.000305067
53 *2:31 *38:125 0.0357781
54 *2:31 *49:11 0
55 *2:31 *49:13 0
56 *2:35 *749:io_in_1[7] 0
57 *2:35 *38:129 0
58 *2:35 *48:5 0
59 *2:35 *452:39 0
60 *2:35 *475:49 0.0144007
61 *2:59 *3:75 0.111237
62 *2:59 *3:83 0.000628414
63 *2:59 *36:21 2.91742e-05
64 *2:59 *36:23 0.00123488
65 *2:59 *687:17 0.0018764
66 *2:77 *3:95 0.0131176
67 *2:79 *620:9 0.0134072
68 *2:83 *522:13 0.00190109
69 *2:95 *3:113 0.0140128
70 *2:95 *4:87 0.0106478
71 *2:95 *35:51 5.06444e-05
72 *2:95 *474:13 0.00101579
73 *2:97 *467:9 0.00260707
74 *2:113 *3:133 0.0224021
75 *2:117 *35:82 0.0849983
76 *2:117 *36:71 0.0921643
77 *2:117 *37:55 0.00268562
78 *2:117 *332:9 0.000190057
*RES
1 io_in[10] *2:5 122.985 
2 *2:5 *2:9 27.81 
3 *2:9 *2:11 449.64 
4 *2:11 *2:13 4.5 
5 *2:13 *2:15 90.63 
6 *2:15 *2:19 46.35 
7 *2:19 *755:io_in[5] 2.295 
8 *2:19 *2:29 4.5 
9 *2:29 *2:31 99.09 
10 *2:31 *2:33 4.5 
11 *2:33 *2:35 149.49 
12 *2:35 *749:io_in_1[5] 35.235 
13 *2:13 *756:io_in[5] 12.015 
14 *2:5 *2:57 4.5 
15 *2:57 *2:59 292.41 
16 *2:59 *2:63 6.75 
17 *2:63 *752:io_in[5] 2.475 
18 *2:63 *2:77 42.57 
19 *2:77 *2:79 72.09 
20 *2:79 *2:81 4.5 
21 *2:81 *2:83 79.11 
22 *2:83 *757:io_in[5] 2.925 
23 *2:83 *2:95 44.37 
24 *2:95 *2:97 102.15 
25 *2:97 *2:99 4.5 
26 *2:99 *2:101 49.77 
27 *2:101 *758:io_in_1[5] 0.675 
28 *2:101 *2:111 4.5 
29 *2:111 *2:113 60.57 
30 *2:113 *2:115 4.5 
31 *2:115 *2:117 235.89 
32 *2:117 *754:io_in[5] 41.715 
*END

*D_NET *3 1.04495
*CONN
*P io_in[11] I
*I *754:io_in[6] I *D wrapped_sid
*I *758:io_in_1[6] I *D wrapped_sn76489
*I *757:io_in[6] I *D wrapped_qcpu
*I *752:io_in[6] I *D wrapped_mc14500
*I *756:io_in[6] I *D wrapped_pdp11
*I *749:io_in_1[6] I *D wrapped_ay8913
*I *755:clk I *D tholin_avalonsemi_tbb1143
*CAP
1 io_in[11] 0.001946
2 *754:io_in[6] 0.00125066
3 *758:io_in_1[6] 0.000115379
4 *757:io_in[6] 0.000499878
5 *752:io_in[6] 0.000203668
6 *756:io_in[6] 0.00091395
7 *749:io_in_1[6] 0.0028597
8 *755:clk 0.00346588
9 *3:137 0.0120196
10 *3:135 0.0107689
11 *3:133 0.00521889
12 *3:131 0.00521889
13 *3:121 0.00376955
14 *3:117 0.0158504
15 *3:115 0.0121962
16 *3:113 0.000952339
17 *3:111 0.000952339
18 *3:101 0.0115788
19 *3:99 0.0110789
20 *3:97 0.000438545
21 *3:95 0.0010033
22 *3:83 0.00125592
23 *3:75 0.0018452
24 *3:73 0.0013577
25 *3:55 0.0121756
26 *3:53 0.0093159
27 *3:51 0.0122382
28 *3:49 0.0155692
29 *3:31 0.00720679
30 *3:29 0.00707192
31 *3:27 0.0135751
32 *3:25 0.014489
33 *3:23 0.0299814
34 *3:21 0.030254
35 *3:13 0.00786219
36 *3:11 0.00758965
37 *3:9 0.00743812
38 *3:7 0.00938412
39 *754:io_in[6] *388:17 0.0110122
40 *756:io_in[6] *11:41 0.000150517
41 *757:io_in[6] *757:io_in[7] 0
42 *3:13 *4:13 0.019528
43 *3:13 *5:13 0.020594
44 *3:13 *6:21 0.000914093
45 *3:21 *4:21 0.000823453
46 *3:21 *4:23 8.99346e-05
47 *3:21 *4:53 1.39839e-05
48 *3:23 *4:23 0.174238
49 *3:23 *10:17 0.00158969
50 *3:23 *10:37 0.000502338
51 *3:23 *44:13 0
52 *3:23 *534:9 0.00323273
53 *3:23 *544:9 0.00154763
54 *3:23 *558:9 0.00763097
55 *3:23 *579:13 0
56 *3:27 *11:41 0.0070893
57 *3:27 *486:13 0.00228139
58 *3:27 *494:13 0.00281083
59 *3:27 *504:13 0
60 *3:27 *510:13 0.00166102
61 *3:31 *24:23 0
62 *3:31 *24:25 0
63 *3:49 *24:23 0.00438831
64 *3:51 *24:13 0
65 *3:75 *4:53 0.112814
66 *3:75 *36:21 0.00010128
67 *3:75 *687:17 0.000551695
68 *3:83 *36:21 0.00144003
69 *3:83 *687:17 0.000118676
70 *3:95 *4:67 0.000255929
71 *3:95 *30:89 0.0147793
72 *3:97 *752:clk_i 0.0038607
73 *3:97 *752:sram_out[0] 0.000434734
74 *3:97 *35:29 0.00234086
75 *3:97 *607:17 0.00127781
76 *3:97 *622:17 0.0248475
77 *3:97 *676:13 0.0182347
78 *3:101 *757:io_in[7] 0
79 *3:101 *4:75 0
80 *3:113 *4:87 0.000468966
81 *3:113 *11:97 0.0235986
82 *3:113 *474:13 0.00187432
83 *3:117 *460:33 0.00492267
84 *3:137 *754:io_in[0] 0.010686
85 *3:137 *4:109 0.0940067
86 *3:137 *34:123 0.00676137
87 *3:137 *313:132 0
88 *754:io_in[5] *754:io_in[6] 0.00916823
89 *2:59 *3:75 0.111237
90 *2:59 *3:83 0.000628414
91 *2:77 *3:95 0.0131176
92 *2:95 *3:113 0.0140128
93 *2:113 *3:133 0.0224021
*RES
1 io_in[11] *3:7 18.225 
2 *3:7 *3:9 57.15 
3 *3:9 *3:11 4.5 
4 *3:11 *3:13 108.45 
5 *3:13 *3:21 11.7 
6 *3:21 *3:23 468.81 
7 *3:23 *3:25 4.5 
8 *3:25 *3:27 133.83 
9 *3:27 *3:29 4.5 
10 *3:29 *3:31 51.75 
11 *3:31 *755:clk 1.125 
12 *755:clk *3:49 46.62 
13 *3:49 *3:51 95.94 
14 *3:51 *3:53 4.5 
15 *3:53 *3:55 69.39 
16 *3:55 *749:io_in_1[6] 26.145 
17 *3:25 *756:io_in[6] 6.075 
18 *3:21 *3:73 4.5 
19 *3:73 *3:75 290.25 
20 *3:75 *3:83 11.25 
21 *3:83 *752:io_in[6] 1.305 
22 *3:83 *3:95 48.51 
23 *3:95 *3:97 69.39 
24 *3:97 *3:99 4.5 
25 *3:99 *3:101 76.77 
26 *3:101 *757:io_in[6] 3.195 
27 *3:101 *3:111 4.5 
28 *3:111 *3:113 59.49 
29 *3:113 *3:115 4.5 
30 *3:115 *3:117 91.17 
31 *3:117 *3:121 32.85 
32 *3:121 *758:io_in_1[6] 0.855 
33 *3:121 *3:131 4.5 
34 *3:131 *3:133 67.95 
35 *3:133 *3:135 4.5 
36 *3:135 *3:137 235.89 
37 *3:137 *754:io_in[6] 42.795 
*END

*D_NET *4 0.963769
*CONN
*P io_in[12] I
*I *754:io_in[7] I *D wrapped_sid
*I *758:io_in_1[7] I *D wrapped_sn76489
*I *757:io_in[7] I *D wrapped_qcpu
*I *752:io_in[7] I *D wrapped_mc14500
*I *756:io_in[7] I *D wrapped_pdp11
*I *749:io_in_1[7] I *D wrapped_ay8913
*CAP
1 io_in[12] 0.00966451
2 *754:io_in[7] 0.00087186
3 *758:io_in_1[7] 0.000607036
4 *757:io_in[7] 0.000434523
5 *752:io_in[7] 0.000154082
6 *756:io_in[7] 0.000908873
7 *749:io_in_1[7] 0.00253601
8 *4:109 0.0169897
9 *4:107 0.0161178
10 *4:105 0.00800507
11 *4:103 0.00800507
12 *4:93 0.00508312
13 *4:91 0.00447609
14 *4:89 0.00645299
15 *4:87 0.00692149
16 *4:75 0.00295689
17 *4:71 0.00652678
18 *4:69 0.0044729
19 *4:67 0.00848259
20 *4:65 0.00848259
21 *4:57 0.000701322
22 *4:53 0.0123446
23 *4:51 0.0117974
24 *4:35 0.0277696
25 *4:33 0.0252336
26 *4:31 0.0136396
27 *4:29 0.0147096
28 *4:25 0.00197886
29 *4:23 0.0246673
30 *4:21 0.0249514
31 *4:13 0.00351444
32 *4:11 0.00323026
33 *4:9 0.00702721
34 *4:7 0.00702721
35 *4:5 0.00966451
36 *754:io_in[7] *388:17 0.0127797
37 *754:io_in[7] *412:17 0.0127878
38 *757:io_in[7] *757:io_in[8] 0.000158922
39 *4:9 *45:17 0.0121625
40 *4:9 *573:13 0.00299656
41 *4:9 *576:9 0
42 *4:9 *583:17 0.0193236
43 *4:21 *574:13 1.82595e-05
44 *4:23 *756:io_in[10] 0.000975235
45 *4:23 *756:io_in[12] 0.000537941
46 *4:23 *7:17 0
47 *4:23 *9:27 0.000329399
48 *4:23 *10:25 0.00159306
49 *4:23 *19:27 0
50 *4:23 *21:21 0
51 *4:23 *27:59 0
52 *4:23 *545:15 0.00112545
53 *4:23 *560:15 0.00265251
54 *4:23 *574:13 0.00840849