*SPEF "ieee 1481-1999"
*DESIGN "user_project_wrapper"
*DATE "11:11:11 Fri 11 11, 1111"
*VENDOR "OpenRCX"
*PROGRAM "Parallel Extraction"
*VERSION "1.0"
*DESIGN_FLOW "NAME_SCOPE LOCAL" "PIN_CAP NONE"
*DIVIDER /
*DELIMITER :
*BUS_DELIMITER []
*T_UNIT 1 NS
*C_UNIT 1 PF
*R_UNIT 1 OHM
*L_UNIT 1 HENRY

*NAME_MAP
*1 io_in[0]
*2 io_in[10]
*3 io_in[11]
*4 io_in[12]
*5 io_in[13]
*6 io_in[14]
*7 io_in[15]
*8 io_in[16]
*9 io_in[17]
*10 io_in[18]
*11 io_in[19]
*12 io_in[1]
*13 io_in[20]
*14 io_in[21]
*15 io_in[22]
*16 io_in[23]
*17 io_in[24]
*18 io_in[25]
*19 io_in[26]
*20 io_in[27]
*21 io_in[28]
*22 io_in[29]
*23 io_in[2]
*24 io_in[30]
*25 io_in[31]
*26 io_in[32]
*27 io_in[33]
*28 io_in[34]
*29 io_in[35]
*30 io_in[36]
*31 io_in[37]
*32 io_in[3]
*33 io_in[4]
*34 io_in[5]
*35 io_in[6]
*36 io_in[7]
*37 io_in[8]
*38 io_in[9]
*39 io_oeb[0]
*40 io_oeb[10]
*41 io_oeb[11]
*42 io_oeb[12]
*43 io_oeb[13]
*44 io_oeb[14]
*45 io_oeb[15]
*46 io_oeb[16]
*47 io_oeb[17]
*48 io_oeb[18]
*49 io_oeb[19]
*50 io_oeb[1]
*51 io_oeb[20]
*52 io_oeb[21]
*53 io_oeb[22]
*54 io_oeb[23]
*55 io_oeb[24]
*56 io_oeb[25]
*57 io_oeb[26]
*58 io_oeb[27]
*59 io_oeb[28]
*60 io_oeb[29]
*61 io_oeb[2]
*62 io_oeb[30]
*63 io_oeb[31]
*64 io_oeb[32]
*65 io_oeb[33]
*66 io_oeb[34]
*67 io_oeb[35]
*68 io_oeb[36]
*69 io_oeb[37]
*70 io_oeb[3]
*71 io_oeb[4]
*72 io_oeb[5]
*73 io_oeb[6]
*74 io_oeb[7]
*75 io_oeb[8]
*76 io_oeb[9]
*77 io_out[0]
*78 io_out[10]
*79 io_out[11]
*80 io_out[12]
*81 io_out[13]
*82 io_out[14]
*83 io_out[15]
*84 io_out[16]
*85 io_out[17]
*86 io_out[18]
*87 io_out[19]
*88 io_out[1]
*89 io_out[20]
*90 io_out[21]
*91 io_out[22]
*92 io_out[23]
*93 io_out[24]
*94 io_out[25]
*95 io_out[26]
*96 io_out[27]
*97 io_out[28]
*98 io_out[29]
*99 io_out[2]
*100 io_out[30]
*101 io_out[31]
*102 io_out[32]
*103 io_out[33]
*104 io_out[34]
*105 io_out[35]
*106 io_out[36]
*107 io_out[37]
*108 io_out[3]
*109 io_out[4]
*110 io_out[5]
*111 io_out[6]
*112 io_out[7]
*113 io_out[8]
*114 io_out[9]
*115 la_data_in[0]
*116 la_data_in[10]
*117 la_data_in[11]
*118 la_data_in[12]
*119 la_data_in[13]
*120 la_data_in[14]
*121 la_data_in[15]
*122 la_data_in[16]
*123 la_data_in[17]
*124 la_data_in[18]
*125 la_data_in[19]
*126 la_data_in[1]
*127 la_data_in[20]
*128 la_data_in[21]
*129 la_data_in[22]
*130 la_data_in[23]
*131 la_data_in[24]
*132 la_data_in[25]
*133 la_data_in[26]
*134 la_data_in[27]
*135 la_data_in[28]
*136 la_data_in[29]
*137 la_data_in[2]
*138 la_data_in[30]
*139 la_data_in[31]
*140 la_data_in[32]
*141 la_data_in[33]
*142 la_data_in[34]
*143 la_data_in[35]
*144 la_data_in[36]
*145 la_data_in[37]
*146 la_data_in[38]
*147 la_data_in[39]
*148 la_data_in[3]
*149 la_data_in[40]
*150 la_data_in[41]
*151 la_data_in[42]
*152 la_data_in[43]
*153 la_data_in[44]
*154 la_data_in[45]
*155 la_data_in[46]
*156 la_data_in[47]
*157 la_data_in[48]
*158 la_data_in[49]
*159 la_data_in[4]
*160 la_data_in[50]
*161 la_data_in[51]
*162 la_data_in[52]
*163 la_data_in[53]
*164 la_data_in[54]
*165 la_data_in[55]
*166 la_data_in[56]
*167 la_data_in[57]
*168 la_data_in[58]
*169 la_data_in[59]
*170 la_data_in[5]
*171 la_data_in[60]
*172 la_data_in[61]
*173 la_data_in[62]
*174 la_data_in[63]
*175 la_data_in[6]
*176 la_data_in[7]
*177 la_data_in[8]
*178 la_data_in[9]
*179 la_data_out[0]
*180 la_data_out[10]
*181 la_data_out[11]
*182 la_data_out[12]
*183 la_data_out[13]
*184 la_data_out[14]
*185 la_data_out[15]
*186 la_data_out[16]
*187 la_data_out[17]
*188 la_data_out[18]
*189 la_data_out[19]
*190 la_data_out[1]
*191 la_data_out[20]
*192 la_data_out[21]
*193 la_data_out[22]
*194 la_data_out[23]
*195 la_data_out[24]
*196 la_data_out[25]
*197 la_data_out[26]
*198 la_data_out[27]
*199 la_data_out[28]
*200 la_data_out[29]
*201 la_data_out[2]
*202 la_data_out[30]
*203 la_data_out[31]
*204 la_data_out[32]
*205 la_data_out[33]
*206 la_data_out[34]
*207 la_data_out[35]
*208 la_data_out[36]
*209 la_data_out[37]
*210 la_data_out[38]
*211 la_data_out[39]
*212 la_data_out[3]
*213 la_data_out[40]
*214 la_data_out[41]
*215 la_data_out[42]
*216 la_data_out[43]
*217 la_data_out[44]
*218 la_data_out[45]
*219 la_data_out[46]
*220 la_data_out[47]
*221 la_data_out[48]
*222 la_data_out[49]
*223 la_data_out[4]
*224 la_data_out[50]
*225 la_data_out[51]
*226 la_data_out[52]
*227 la_data_out[53]
*228 la_data_out[54]
*229 la_data_out[55]
*230 la_data_out[56]
*231 la_data_out[57]
*232 la_data_out[58]
*233 la_data_out[59]
*234 la_data_out[5]
*235 la_data_out[60]
*236 la_data_out[61]
*237 la_data_out[62]
*238 la_data_out[63]
*239 la_data_out[6]
*240 la_data_out[7]
*241 la_data_out[8]
*242 la_data_out[9]
*243 la_oenb[0]
*244 la_oenb[10]
*245 la_oenb[11]
*246 la_oenb[12]
*247 la_oenb[13]
*248 la_oenb[14]
*249 la_oenb[15]
*250 la_oenb[16]
*251 la_oenb[17]
*252 la_oenb[18]
*253 la_oenb[19]
*254 la_oenb[1]
*255 la_oenb[20]
*256 la_oenb[21]
*257 la_oenb[22]
*258 la_oenb[23]
*259 la_oenb[24]
*260 la_oenb[25]
*261 la_oenb[26]
*262 la_oenb[27]
*263 la_oenb[28]
*264 la_oenb[29]
*265 la_oenb[2]
*266 la_oenb[30]
*267 la_oenb[31]
*268 la_oenb[32]
*269 la_oenb[33]
*270 la_oenb[34]
*271 la_oenb[35]
*272 la_oenb[36]
*273 la_oenb[37]
*274 la_oenb[38]
*275 la_oenb[39]
*276 la_oenb[3]
*277 la_oenb[40]
*278 la_oenb[41]
*279 la_oenb[42]
*280 la_oenb[43]
*281 la_oenb[44]
*282 la_oenb[45]
*283 la_oenb[46]
*284 la_oenb[47]
*285 la_oenb[48]
*286 la_oenb[49]
*287 la_oenb[4]
*288 la_oenb[50]
*289 la_oenb[51]
*290 la_oenb[52]
*291 la_oenb[53]
*292 la_oenb[54]
*293 la_oenb[55]
*294 la_oenb[56]
*295 la_oenb[57]
*296 la_oenb[58]
*297 la_oenb[59]
*298 la_oenb[5]
*299 la_oenb[60]
*300 la_oenb[61]
*301 la_oenb[62]
*302 la_oenb[63]
*303 la_oenb[6]
*304 la_oenb[7]
*305 la_oenb[8]
*306 la_oenb[9]
*307 user_clock2
*308 user_irq[0]
*309 user_irq[1]
*310 user_irq[2]
*313 wb_clk_i
*314 wb_rst_i
*315 wbs_ack_o
*316 wbs_adr_i[0]
*317 wbs_adr_i[10]
*318 wbs_adr_i[11]
*319 wbs_adr_i[12]
*320 wbs_adr_i[13]
*321 wbs_adr_i[14]
*322 wbs_adr_i[15]
*323 wbs_adr_i[16]
*324 wbs_adr_i[17]
*325 wbs_adr_i[18]
*326 wbs_adr_i[19]
*327 wbs_adr_i[1]
*328 wbs_adr_i[20]
*329 wbs_adr_i[21]
*330 wbs_adr_i[22]
*331 wbs_adr_i[23]
*332 wbs_adr_i[24]
*333 wbs_adr_i[25]
*334 wbs_adr_i[26]
*335 wbs_adr_i[27]
*336 wbs_adr_i[28]
*337 wbs_adr_i[29]
*338 wbs_adr_i[2]
*339 wbs_adr_i[30]
*340 wbs_adr_i[31]
*341 wbs_adr_i[3]
*342 wbs_adr_i[4]
*343 wbs_adr_i[5]
*344 wbs_adr_i[6]
*345 wbs_adr_i[7]
*346 wbs_adr_i[8]
*347 wbs_adr_i[9]
*348 wbs_cyc_i
*349 wbs_dat_i[0]
*350 wbs_dat_i[10]
*351 wbs_dat_i[11]
*352 wbs_dat_i[12]
*353 wbs_dat_i[13]
*354 wbs_dat_i[14]
*355 wbs_dat_i[15]
*356 wbs_dat_i[16]
*357 wbs_dat_i[17]
*358 wbs_dat_i[18]
*359 wbs_dat_i[19]
*360 wbs_dat_i[1]
*361 wbs_dat_i[20]
*362 wbs_dat_i[21]
*363 wbs_dat_i[22]
*364 wbs_dat_i[23]
*365 wbs_dat_i[24]
*366 wbs_dat_i[25]
*367 wbs_dat_i[26]
*368 wbs_dat_i[27]
*369 wbs_dat_i[28]
*370 wbs_dat_i[29]
*371 wbs_dat_i[2]
*372 wbs_dat_i[30]
*373 wbs_dat_i[31]
*374 wbs_dat_i[3]
*375 wbs_dat_i[4]
*376 wbs_dat_i[5]
*377 wbs_dat_i[6]
*378 wbs_dat_i[7]
*379 wbs_dat_i[8]
*380 wbs_dat_i[9]
*381 wbs_dat_o[0]
*382 wbs_dat_o[10]
*383 wbs_dat_o[11]
*384 wbs_dat_o[12]
*385 wbs_dat_o[13]
*386 wbs_dat_o[14]
*387 wbs_dat_o[15]
*388 wbs_dat_o[16]
*389 wbs_dat_o[17]
*390 wbs_dat_o[18]
*391 wbs_dat_o[19]
*392 wbs_dat_o[1]
*393 wbs_dat_o[20]
*394 wbs_dat_o[21]
*395 wbs_dat_o[22]
*396 wbs_dat_o[23]
*397 wbs_dat_o[24]
*398 wbs_dat_o[25]
*399 wbs_dat_o[26]
*400 wbs_dat_o[27]
*401 wbs_dat_o[28]
*402 wbs_dat_o[29]
*403 wbs_dat_o[2]
*404 wbs_dat_o[30]
*405 wbs_dat_o[31]
*406 wbs_dat_o[3]
*407 wbs_dat_o[4]
*408 wbs_dat_o[5]
*409 wbs_dat_o[6]
*410 wbs_dat_o[7]
*411 wbs_dat_o[8]
*412 wbs_dat_o[9]
*413 wbs_sel_i[0]
*414 wbs_sel_i[1]
*415 wbs_sel_i[2]
*416 wbs_sel_i[3]
*417 wbs_stb_i
*418 wbs_we_i
*419 blinker_do\[0\]
*420 blinker_do\[1\]
*421 blinker_do\[2\]
*422 custom_settings\[0\]
*423 custom_settings\[10\]
*424 custom_settings\[11\]
*425 custom_settings\[12\]
*426 custom_settings\[13\]
*427 custom_settings\[14\]
*428 custom_settings\[15\]
*429 custom_settings\[16\]
*430 custom_settings\[17\]
*431 custom_settings\[18\]
*432 custom_settings\[19\]
*433 custom_settings\[1\]
*434 custom_settings\[20\]
*435 custom_settings\[21\]
*436 custom_settings\[22\]
*437 custom_settings\[23\]
*438 custom_settings\[24\]
*439 custom_settings\[25\]
*440 custom_settings\[26\]
*441 custom_settings\[27\]
*442 custom_settings\[28\]
*443 custom_settings\[29\]
*444 custom_settings\[2\]
*445 custom_settings\[30\]
*446 custom_settings\[31\]
*447 custom_settings\[3\]
*448 custom_settings\[4\]
*449 custom_settings\[5\]
*450 custom_settings\[6\]
*451 custom_settings\[7\]
*452 custom_settings\[8\]
*453 custom_settings\[9\]
*454 qcpu_do\[0\]
*455 qcpu_do\[10\]
*456 qcpu_do\[11\]
*457 qcpu_do\[12\]
*458 qcpu_do\[13\]
*459 qcpu_do\[14\]
*460 qcpu_do\[15\]
*461 qcpu_do\[16\]
*462 qcpu_do\[17\]
*463 qcpu_do\[18\]
*464 qcpu_do\[19\]
*465 qcpu_do\[1\]
*466 qcpu_do\[20\]
*467 qcpu_do\[21\]
*468 qcpu_do\[22\]
*469 qcpu_do\[23\]
*470 qcpu_do\[24\]
*471 qcpu_do\[25\]
*472 qcpu_do\[26\]
*473 qcpu_do\[27\]
*474 qcpu_do\[28\]
*475 qcpu_do\[29\]
*476 qcpu_do\[2\]
*477 qcpu_do\[30\]
*478 qcpu_do\[31\]
*479 qcpu_do\[32\]
*480 qcpu_do\[3\]
*481 qcpu_do\[4\]
*482 qcpu_do\[5\]
*483 qcpu_do\[6\]
*484 qcpu_do\[7\]
*485 qcpu_do\[8\]
*486 qcpu_do\[9\]
*487 qcpu_oeb\[0\]
*488 qcpu_oeb\[10\]
*489 qcpu_oeb\[11\]
*490 qcpu_oeb\[12\]
*491 qcpu_oeb\[13\]
*492 qcpu_oeb\[14\]
*493 qcpu_oeb\[15\]
*494 qcpu_oeb\[16\]
*495 qcpu_oeb\[17\]
*496 qcpu_oeb\[18\]
*497 qcpu_oeb\[19\]
*498 qcpu_oeb\[1\]
*499 qcpu_oeb\[20\]
*500 qcpu_oeb\[21\]
*501 qcpu_oeb\[22\]
*502 qcpu_oeb\[23\]
*503 qcpu_oeb\[24\]
*504 qcpu_oeb\[25\]
*505 qcpu_oeb\[26\]
*506 qcpu_oeb\[27\]
*507 qcpu_oeb\[28\]
*508 qcpu_oeb\[29\]
*509 qcpu_oeb\[2\]
*510 qcpu_oeb\[30\]
*511 qcpu_oeb\[31\]
*512 qcpu_oeb\[32\]
*513 qcpu_oeb\[3\]
*514 qcpu_oeb\[4\]
*515 qcpu_oeb\[5\]
*516 qcpu_oeb\[6\]
*517 qcpu_oeb\[7\]
*518 qcpu_oeb\[8\]
*519 qcpu_oeb\[9\]
*520 qcpu_sram_addr\[0\]
*521 qcpu_sram_addr\[1\]
*522 qcpu_sram_addr\[2\]
*523 qcpu_sram_addr\[3\]
*524 qcpu_sram_addr\[4\]
*525 qcpu_sram_addr\[5\]
*526 qcpu_sram_gwe
*527 qcpu_sram_in\[0\]
*528 qcpu_sram_in\[1\]
*529 qcpu_sram_in\[2\]
*530 qcpu_sram_in\[3\]
*531 qcpu_sram_in\[4\]
*532 qcpu_sram_in\[5\]
*533 qcpu_sram_in\[6\]
*534 qcpu_sram_in\[7\]
*535 qcpu_sram_out\[0\]
*536 qcpu_sram_out\[1\]
*537 qcpu_sram_out\[2\]
*538 qcpu_sram_out\[3\]
*539 qcpu_sram_out\[4\]
*540 qcpu_sram_out\[5\]
*541 qcpu_sram_out\[6\]
*542 qcpu_sram_out\[7\]
*543 rst_blinker
*544 rst_qcpu
*545 rst_sid
*546 rst_sn76489
*547 sid_do\[0\]
*548 sid_do\[10\]
*549 sid_do\[11\]
*550 sid_do\[12\]
*551 sid_do\[13\]
*552 sid_do\[14\]
*553 sid_do\[15\]
*554 sid_do\[16\]
*555 sid_do\[17\]
*556 sid_do\[18\]
*557 sid_do\[19\]
*558 sid_do\[1\]
*559 sid_do\[20\]
*560 sid_do\[2\]
*561 sid_do\[3\]
*562 sid_do\[4\]
*563 sid_do\[5\]
*564 sid_do\[6\]
*565 sid_do\[7\]
*566 sid_do\[8\]
*567 sid_do\[9\]
*568 sid_oeb
*569 sn76489_do\[0\]
*570 sn76489_do\[10\]
*571 sn76489_do\[11\]
*572 sn76489_do\[12\]
*573 sn76489_do\[13\]
*574 sn76489_do\[14\]
*575 sn76489_do\[15\]
*576 sn76489_do\[16\]
*577 sn76489_do\[17\]
*578 sn76489_do\[18\]
*579 sn76489_do\[19\]
*580 sn76489_do\[1\]
*581 sn76489_do\[20\]
*582 sn76489_do\[21\]
*583 sn76489_do\[22\]
*584 sn76489_do\[23\]
*585 sn76489_do\[24\]
*586 sn76489_do\[25\]
*587 sn76489_do\[26\]
*588 sn76489_do\[27\]
*589 sn76489_do\[2\]
*590 sn76489_do\[3\]
*591 sn76489_do\[4\]
*592 sn76489_do\[5\]
*593 sn76489_do\[6\]
*594 sn76489_do\[7\]
*595 sn76489_do\[8\]
*596 sn76489_do\[9\]
*597 avali_logo
*598 blinker
*599 multiplexer
*600 sid
*601 wrapped_qcpu
*602 wrapped_sn76489

*PORTS
io_in[0] I
io_in[10] I
io_in[11] I
io_in[12] I
io_in[13] I
io_in[14] I
io_in[15] I
io_in[16] I
io_in[17] I
io_in[18] I
io_in[19] I
io_in[1] I
io_in[20] I
io_in[21] I
io_in[22] I
io_in[23] I
io_in[24] I
io_in[25] I
io_in[26] I
io_in[27] I
io_in[28] I
io_in[29] I
io_in[2] I
io_in[30] I
io_in[31] I
io_in[32] I
io_in[33] I
io_in[34] I
io_in[35] I
io_in[36] I
io_in[37] I
io_in[3] I
io_in[4] I
io_in[5] I
io_in[6] I
io_in[7] I
io_in[8] I
io_in[9] I
io_oeb[0] O
io_oeb[10] O
io_oeb[11] O
io_oeb[12] O
io_oeb[13] O
io_oeb[14] O
io_oeb[15] O
io_oeb[16] O
io_oeb[17] O
io_oeb[18] O
io_oeb[19] O
io_oeb[1] O
io_oeb[20] O
io_oeb[21] O
io_oeb[22] O
io_oeb[23] O
io_oeb[24] O
io_oeb[25] O
io_oeb[26] O
io_oeb[27] O
io_oeb[28] O
io_oeb[29] O
io_oeb[2] O
io_oeb[30] O
io_oeb[31] O
io_oeb[32] O
io_oeb[33] O
io_oeb[34] O
io_oeb[35] O
io_oeb[36] O
io_oeb[37] O
io_oeb[3] O
io_oeb[4] O
io_oeb[5] O
io_oeb[6] O
io_oeb[7] O
io_oeb[8] O
io_oeb[9] O
io_out[0] O
io_out[10] O
io_out[11] O
io_out[12] O
io_out[13] O
io_out[14] O
io_out[15] O
io_out[16] O
io_out[17] O
io_out[18] O
io_out[19] O
io_out[1] O
io_out[20] O
io_out[21] O
io_out[22] O
io_out[23] O
io_out[24] O
io_out[25] O
io_out[26] O
io_out[27] O
io_out[28] O
io_out[29] O
io_out[2] O
io_out[30] O
io_out[31] O
io_out[32] O
io_out[33] O
io_out[34] O
io_out[35] O
io_out[36] O
io_out[37] O
io_out[3] O
io_out[4] O
io_out[5] O
io_out[6] O
io_out[7] O
io_out[8] O
io_out[9] O
la_data_in[0] I
la_data_in[10] I
la_data_in[11] I
la_data_in[12] I
la_data_in[13] I
la_data_in[14] I
la_data_in[15] I
la_data_in[16] I
la_data_in[17] I
la_data_in[18] I
la_data_in[19] I
la_data_in[1] I
la_data_in[20] I
la_data_in[21] I
la_data_in[22] I
la_data_in[23] I
la_data_in[24] I
la_data_in[25] I
la_data_in[26] I
la_data_in[27] I
la_data_in[28] I
la_data_in[29] I
la_data_in[2] I
la_data_in[30] I
la_data_in[31] I
la_data_in[32] I
la_data_in[33] I
la_data_in[34] I
la_data_in[35] I
la_data_in[36] I
la_data_in[37] I
la_data_in[38] I
la_data_in[39] I
la_data_in[3] I
la_data_in[40] I
la_data_in[41] I
la_data_in[42] I
la_data_in[43] I
la_data_in[44] I
la_data_in[45] I
la_data_in[46] I
la_data_in[47] I
la_data_in[48] I
la_data_in[49] I
la_data_in[4] I
la_data_in[50] I
la_data_in[51] I
la_data_in[52] I
la_data_in[53] I
la_data_in[54] I
la_data_in[55] I
la_data_in[56] I
la_data_in[57] I
la_data_in[58] I
la_data_in[59] I
la_data_in[5] I
la_data_in[60] I
la_data_in[61] I
la_data_in[62] I
la_data_in[63] I
la_data_in[6] I
la_data_in[7] I
la_data_in[8] I
la_data_in[9] I
la_data_out[0] O
la_data_out[10] O
la_data_out[11] O
la_data_out[12] O
la_data_out[13] O
la_data_out[14] O
la_data_out[15] O
la_data_out[16] O
la_data_out[17] O
la_data_out[18] O
la_data_out[19] O
la_data_out[1] O
la_data_out[20] O
la_data_out[21] O
la_data_out[22] O
la_data_out[23] O
la_data_out[24] O
la_data_out[25] O
la_data_out[26] O
la_data_out[27] O
la_data_out[28] O
la_data_out[29] O
la_data_out[2] O
la_data_out[30] O
la_data_out[31] O
la_data_out[32] O
la_data_out[33] O
la_data_out[34] O
la_data_out[35] O
la_data_out[36] O
la_data_out[37] O
la_data_out[38] O
la_data_out[39] O
la_data_out[3] O
la_data_out[40] O
la_data_out[41] O
la_data_out[42] O
la_data_out[43] O
la_data_out[44] O
la_data_out[45] O
la_data_out[46] O
la_data_out[47] O
la_data_out[48] O
la_data_out[49] O
la_data_out[4] O
la_data_out[50] O
la_data_out[51] O
la_data_out[52] O
la_data_out[53] O
la_data_out[54] O
la_data_out[55] O
la_data_out[56] O
la_data_out[57] O
la_data_out[58] O
la_data_out[59] O
la_data_out[5] O
la_data_out[60] O
la_data_out[61] O
la_data_out[62] O
la_data_out[63] O
la_data_out[6] O
la_data_out[7] O
la_data_out[8] O
la_data_out[9] O
la_oenb[0] I
la_oenb[10] I
la_oenb[11] I
la_oenb[12] I
la_oenb[13] I
la_oenb[14] I
la_oenb[15] I
la_oenb[16] I
la_oenb[17] I
la_oenb[18] I
la_oenb[19] I
la_oenb[1] I
la_oenb[20] I
la_oenb[21] I
la_oenb[22] I
la_oenb[23] I
la_oenb[24] I
la_oenb[25] I
la_oenb[26] I
la_oenb[27] I
la_oenb[28] I
la_oenb[29] I
la_oenb[2] I
la_oenb[30] I
la_oenb[31] I
la_oenb[32] I
la_oenb[33] I
la_oenb[34] I
la_oenb[35] I
la_oenb[36] I
la_oenb[37] I
la_oenb[38] I
la_oenb[39] I
la_oenb[3] I
la_oenb[40] I
la_oenb[41] I
la_oenb[42] I
la_oenb[43] I
la_oenb[44] I
la_oenb[45] I
la_oenb[46] I
la_oenb[47] I
la_oenb[48] I
la_oenb[49] I
la_oenb[4] I
la_oenb[50] I
la_oenb[51] I
la_oenb[52] I
la_oenb[53] I
la_oenb[54] I
la_oenb[55] I
la_oenb[56] I
la_oenb[57] I
la_oenb[58] I
la_oenb[59] I
la_oenb[5] I
la_oenb[60] I
la_oenb[61] I
la_oenb[62] I
la_oenb[63] I
la_oenb[6] I
la_oenb[7] I
la_oenb[8] I
la_oenb[9] I
user_clock2 I
user_irq[0] O
user_irq[1] O
user_irq[2] O
wb_clk_i I
wb_rst_i I
wbs_ack_o O
wbs_adr_i[0] I
wbs_adr_i[10] I
wbs_adr_i[11] I
wbs_adr_i[12] I
wbs_adr_i[13] I
wbs_adr_i[14] I
wbs_adr_i[15] I
wbs_adr_i[16] I
wbs_adr_i[17] I
wbs_adr_i[18] I
wbs_adr_i[19] I
wbs_adr_i[1] I
wbs_adr_i[20] I
wbs_adr_i[21] I
wbs_adr_i[22] I
wbs_adr_i[23] I
wbs_adr_i[24] I
wbs_adr_i[25] I
wbs_adr_i[26] I
wbs_adr_i[27] I
wbs_adr_i[28] I
wbs_adr_i[29] I
wbs_adr_i[2] I
wbs_adr_i[30] I
wbs_adr_i[31] I
wbs_adr_i[3] I
wbs_adr_i[4] I
wbs_adr_i[5] I
wbs_adr_i[6] I
wbs_adr_i[7] I
wbs_adr_i[8] I
wbs_adr_i[9] I
wbs_cyc_i I
wbs_dat_i[0] I
wbs_dat_i[10] I
wbs_dat_i[11] I
wbs_dat_i[12] I
wbs_dat_i[13] I
wbs_dat_i[14] I
wbs_dat_i[15] I
wbs_dat_i[16] I
wbs_dat_i[17] I
wbs_dat_i[18] I
wbs_dat_i[19] I
wbs_dat_i[1] I
wbs_dat_i[20] I
wbs_dat_i[21] I
wbs_dat_i[22] I
wbs_dat_i[23] I
wbs_dat_i[24] I
wbs_dat_i[25] I
wbs_dat_i[26] I
wbs_dat_i[27] I
wbs_dat_i[28] I
wbs_dat_i[29] I
wbs_dat_i[2] I
wbs_dat_i[30] I
wbs_dat_i[31] I
wbs_dat_i[3] I
wbs_dat_i[4] I
wbs_dat_i[5] I
wbs_dat_i[6] I
wbs_dat_i[7] I
wbs_dat_i[8] I
wbs_dat_i[9] I
wbs_dat_o[0] O
wbs_dat_o[10] O
wbs_dat_o[11] O
wbs_dat_o[12] O
wbs_dat_o[13] O
wbs_dat_o[14] O
wbs_dat_o[15] O
wbs_dat_o[16] O
wbs_dat_o[17] O
wbs_dat_o[18] O
wbs_dat_o[19] O
wbs_dat_o[1] O
wbs_dat_o[20] O
wbs_dat_o[21] O
wbs_dat_o[22] O
wbs_dat_o[23] O
wbs_dat_o[24] O
wbs_dat_o[25] O
wbs_dat_o[26] O
wbs_dat_o[27] O
wbs_dat_o[28] O
wbs_dat_o[29] O
wbs_dat_o[2] O
wbs_dat_o[30] O
wbs_dat_o[31] O
wbs_dat_o[3] O
wbs_dat_o[4] O
wbs_dat_o[5] O
wbs_dat_o[6] O
wbs_dat_o[7] O
wbs_dat_o[8] O
wbs_dat_o[9] O
wbs_sel_i[0] I
wbs_sel_i[1] I
wbs_sel_i[2] I
wbs_sel_i[3] I
wbs_stb_i I
wbs_we_i I

*D_NET *1 0.57578
*CONN
*P io_in[0] I
*I *599:io_in[0] I *D multiplexer
*CAP
1 io_in[0] 0.00317306
2 *599:io_in[0] 0.000164587
3 *1:13 0.0031951
4 *1:11 0.00303051
5 *1:9 0.0731104
6 *1:7 0.0762834
7 *1:13 *12:13 0.211469
8 *1:13 *23:13 0.000375967
9 *1:13 *25:53 8.38345e-06
10 *1:13 *27:29 0.000226985
11 *1:13 *32:13 0.204382
12 *1:13 *103:9 0.000361252
*RES
1 io_in[0] *1:7 29.025 
2 *1:7 *1:9 561.51 
3 *1:9 *1:11 4.5 
4 *1:11 *1:13 531.09 
5 *1:13 *599:io_in[0] 5.445 
*END

*D_NET *2 0.567802
*CONN
*P io_in[10] I
*I *600:io_in[5] I *D wrapped_sid
*I *602:io_in_1[5] I *D wrapped_sn76489
*I *601:io_in[5] I *D wrapped_qcpu
*I *599:io_in[10] I *D multiplexer
*CAP
1 io_in[10] 0.0247298
2 *600:io_in[5] 0.000879569
3 *602:io_in_1[5] 9.38001e-05
4 *601:io_in[5] 0.000632673
5 *599:io_in[10] 0.000719388
6 *2:71 0.0167555
7 *2:69 0.0158759
8 *2:67 0.00372073
9 *2:65 0.00536268
10 *2:51 0.00631905
11 *2:49 0.00458329
12 *2:47 0.00672265
13 *2:45 0.00694232
14 *2:31 0.0341379
15 *2:29 0.0332856
16 *2:19 0.0244544
17 *2:17 0.0273487
18 *2:13 0.00380129
19 *2:9 0.00992169
20 *2:7 0.00973411
21 *2:5 0.0247298
22 *600:io_in[5] *388:17 0.000767279
23 *600:io_in[5] *402:17 0.00945728
24 *600:io_in[5] *405:25 0.00944925
25 *601:io_in[5] *601:io_in[4] 0.000188465
26 *2:9 *3:77 0
27 *2:9 *38:21 0
28 *2:13 *4:21 0
29 *2:17 *4:21 0
30 *2:19 *599:blinker_do[0] 0.00429737
31 *2:19 *599:blinker_do[2] 0.000828739
32 *2:19 *599:io_in[15] 0.000432436
33 *2:19 *599:io_in[20] 0.000241058
34 *2:19 *4:21 0.0147169
35 *2:19 *8:57 0.0156552
36 *2:19 *9:13 0.000254503
37 *2:19 *9:57 0.00608697
38 *2:19 *13:23 0.000961214
39 *2:19 *21:21 0.0152526
40 *2:19 *25:53 0
41 *2:19 *101:9 0.020211
42 *2:19 *543:11 0.00671465
43 *2:19 *546:13 8.3187e-05
44 *2:31 *601:io_in[4] 0.0254918
45 *2:45 *3:37 0.0133595
46 *2:45 *5:45 0.0133595
47 *2:47 *37:37 0.0356135
48 *2:47 *443:17 0.000450221
49 *2:51 *601:custom_settings[11] 0.00502275
50 *2:67 *37:56 0.014118
51 *2:71 *3:61 0
52 *2:71 *34:47 0
53 *2:71 *37:58 0.0940373
*RES
1 io_in[10] *2:5 197.325 
2 *2:5 *2:7 4.5 
3 *2:7 *2:9 73.53 
4 *2:9 *2:13 5.85 
5 *2:13 *2:17 27.81 
6 *2:17 *2:19 308.34 
7 *2:19 *599:io_in[10] 8.325 
8 *2:13 *2:29 4.5 
9 *2:29 *2:31 323.19 
10 *2:31 *601:io_in[5] 4.635 
11 *2:31 *2:45 42.75 
12 *2:45 *2:47 94.23 
13 *2:47 *2:49 4.5 
14 *2:49 *2:51 49.95 
15 *2:51 *602:io_in_1[5] 0.675 
16 *2:51 *2:65 17.01 
17 *2:65 *2:67 46.08 
18 *2:67 *2:69 4.5 
19 *2:69 *2:71 236.25 
20 *2:71 *600:io_in[5] 38.475 
*END

*D_NET *3 0.698284
*CONN
*P io_in[11] I
*I *599:io_in[11] I *D multiplexer
*I *600:io_in[6] I *D wrapped_sid
*I *602:io_in_1[6] I *D wrapped_sn76489
*I *601:io_in[6] I *D wrapped_qcpu
*CAP
1 io_in[11] 0.00190448
2 *599:io_in[11] 0.000921168
3 *600:io_in[6] 0.00363967
4 *602:io_in_1[6] 0.000477819
5 *601:io_in[6] 0.00060781
6 *3:79 0.00227728
7 *3:77 0.00161001
8 *3:67 0.00368544
9 *3:61 0.0216114
10 *3:59 0.0215656
11 *3:57 0.00150558
12 *3:55 0.00150558
13 *3:45 0.00490983
14 *3:41 0.0156181
15 *3:39 0.0111861
16 *3:37 0.000361824
17 *3:35 0.000361824
18 *3:25 0.0444874
19 *3:23 0.0451534
20 *3:13 0.0233385
21 *3:11 0.0223185
22 *3:9 0.0170619
23 *3:7 0.0189664
24 *3:23 *4:17 0.00105917
25 *3:23 *4:21 0
26 *3:23 *4:33 0.000202474
27 *3:23 *5:39 9.85004e-05
28 *3:37 *4:49 0.0198947
29 *3:37 *5:45 0.00301496
30 *3:41 *436:9 0.00365963
31 *3:45 *601:custom_settings[14] 0
32 *3:57 *4:69 0.026563
33 *3:57 *38:63 0.0180954
34 *3:61 *601:wb_clk_i 0.0411979
35 *3:61 *36:69 0
36 *3:61 *37:58 0
37 *3:61 *313:53 0.00104909
38 *3:67 *599:wbs_dat_i[9] 0.0106861
39 *3:67 *356:13 0.0106781
40 *3:67 *359:13 0.000932161
41 *3:79 *4:21 0.133584
42 *3:79 *5:21 0.0155524
43 *3:79 *15:19 0.000271881
44 *3:79 *38:21 0.000216087
45 *3:79 *38:23 0.133094
46 *3:79 *88:9 0
47 *2:9 *3:77 0
48 *2:45 *3:37 0.0133595
49 *2:71 *3:61 0
*RES
1 io_in[11] *3:7 18.225 
2 *3:7 *3:9 130.59 
3 *3:9 *3:11 4.5 
4 *3:11 *3:13 179.73 
5 *3:13 *3:23 22.86 
6 *3:23 *3:25 323.37 
7 *3:25 *601:io_in[6] 3.915 
8 *3:25 *3:35 4.5 
9 *3:35 *3:37 50.13 
10 *3:37 *3:39 4.5 
11 *3:39 *3:41 83.25 
12 *3:41 *3:45 38.07 
13 *3:45 *602:io_in_1[6] 3.735 
14 *3:45 *3:55 4.5 
15 *3:55 *3:57 67.77 
16 *3:57 *3:59 4.5 
17 *3:59 *3:61 220.23 
18 *3:61 *3:67 36.27 
19 *3:67 *600:io_in[6] 24.165 
20 *3:23 *3:77 6.21 
21 *3:77 *3:79 335.97 
22 *3:79 *599:io_in[11] 9.405 
*END

*D_NET *4 0.756563
*CONN
*P io_in[12] I
*I *600:io_in[7] I *D wrapped_sid
*I *602:io_in_1[7] I *D wrapped_sn76489
*I *601:io_in[7] I *D wrapped_qcpu
*I *599:io_in[12] I *D multiplexer
*CAP
1 io_in[12] 0.0223954
2 *600:io_in[7] 0.00184238
3 *602:io_in_1[7] 0.000508456
4 *601:io_in[7] 0.000527882
5 *599:io_in[12] 0.000898175
6 *4:79 0.00402382
7 *4:73 0.0138169
8 *4:71 0.0116355
9 *4:69 0.00622758
10 *4:67 0.00622758
11 *4:57 0.00103664
12 *4:53 0.0101967
13 *4:51 0.0096685
14 *4:49 0.00110229
15 *4:47 0.00110229
16 *4:33 0.0232495
17 *4:31 0.0227607
18 *4:21 0.0123445
19 *4:19 0.0114463
20 *4:17 0.00120551
21 *4:9 0.0268993
22 *4:7 0.0257329
23 *4:5 0.0223954
24 *4:17 *38:13 0.00597428
25 *4:21 *599:blinker_do[2] 0.00125178
26 *4:21 *599:io_in[22] 0.000206807
27 *4:21 *599:io_in[23] 6.58085e-05
28 *4:21 *5:21 0.000316829
29 *4:21 *8:57 0.011948
30 *4:21 *15:19 0.00382699
31 *4:21 *16:19 0.000201121
32 *4:21 *21:21 0.00080597
33 *4:21 *88:9 0
34 *4:21 *101:9 0.00445098
35 *4:21 *543:11 0.00075001
36 *4:33 *5:39 0.12544
37 *4:33 *5:43 0.00037455
38 *4:49 *601:io_in[8] 0
39 *4:49 *5:45 0.00389518
40 *4:49 *11:71 0.0327704
41 *4:53 *422:32 0.00055803
42 *4:53 *431:9 0.0051818
43 *4:69 *38:63 0.000642747
44 *4:73 *35:71 0
45 *4:73 *38:67 0.0878269
46 *4:73 *368:9 0.000382089
47 *4:73 *420:6 0.0301538
48 *4:79 *599:wbs_adr_i[31] 0.00222305
49 *4:79 *599:wbs_dat_i[0] 0.00405139
50 *2:13 *4:21 0
51 *2:17 *4:21 0
52 *2:19 *4:21 0.0147169
53 *3:23 *4:17 0.00105917
54 *3:23 *4:21 0
55 *3:23 *4:33 0.000202474
56 *3:37 *4:49 0.0198947
57 *3:57 *4:69 0.026563
58 *3:79 *4:21 0.133584
*RES
1 io_in[12] *4:5 178.425 
2 *4:5 *4:7 4.5 
3 *4:7 *4:9 196.83 
4 *4:9 *4:17 26.64 
5 *4:17 *4:19 4.5 
6 *4:19 *4:21 336.51 
7 *4:21 *599:io_in[12] 9.225 
8 *4:17 *4:31 0.27 
9 *4:31 *4:33 324.99 
10 *4:33 *601:io_in[7] 3.735 
11 *4:33 *4:47 4.5 
12 *4:47 *4:49 82.71 
13 *4:49 *4:51 4.5 
14 *4:51 *4:53 72.27 
15 *4:53 *4:57 8.55 
16 *4:57 *602:io_in_1[7] 3.915 
17 *4:57 *4:67 4.5 
18 *4:67 *4:69 82.35 
19 *4:69 *4:71 4.5 
20 *4:71 *4:73 233.73 
21 *4:73 *4:79 44.37 
22 *4:79 *600:io_in[7] 10.485 
*END

*D_NET *5 0.817101
*CONN
*P io_in[13] I
*I *601:io_in[8] I *D wrapped_qcpu
*I *600:io_in[8] I *D wrapped_sid
*I *599:io_in[13] I *D multiplexer
*CAP
1 io_in[13] 0.0238456
2 *601:io_in[8] 0.000894575
3 *600:io_in[8] 0.00362251
4 *599:io_in[13] 0.000949307
5 *5:49 0.00381205
6 *5:47 0.000189537
7 *5:45 0.0296128
8 *5:43 0.0296948
9 *5:39 0.0234294
10 *5:37 0.0224529
11 *5:21 0.00446683
12 *5:19 0.00378475
13 *5:13 0.000629777
14 *5:9 0.0348921
15 *5:7 0.0345296
16 *5:5 0.0238456
17 *601:io_in[8] *601:io_in[9] 0
18 *601:io_in[8] *11:71 0
19 *601:io_in[8] *27:65 0.000179358
20 *5:9 *6:17 0
21 *5:21 *599:io_in[15] 0.000451161
22 *5:21 *8:57 0.161298
23 *5:21 *9:37 0.141959
24 *5:21 *15:19 0.000235663
25 *5:21 *16:19 0.000218768
26 *5:21 *38:23 0.000513509
27 *5:45 *8:41 0.00555706
28 *5:45 *11:71 0.009127
29 *5:45 *27:65 0
30 *5:49 *599:wbs_dat_i[9] 0.0452483
31 *5:49 *19:29 0.00245325
32 *5:49 *356:13 0.0452403
33 *5:49 *359:13 0.00191509
34 *2:45 *5:45 0.0133595
35 *3:23 *5:39 9.85004e-05
36 *3:37 *5:45 0.00301496
37 *3:79 *5:21 0.0155524
38 *4:21 *5:21 0.000316829
39 *4:33 *5:39 0.12544
40 *4:33 *5:43 0.00037455
41 *4:49 *601:io_in[8] 0
42 *4:49 *5:45 0.00389518
*RES
1 io_in[13] *5:5 190.665 
2 *5:5 *5:7 4.5 
3 *5:7 *5:9 264.51 
4 *5:9 *5:13 7.11 
5 *5:13 *5:19 10.4111 
6 *5:19 *5:21 141.867 
7 *5:21 *599:io_in[13] 18.3761 
8 *5:13 *5:37 4.5 
9 *5:37 *5:39 322.29 
10 *5:39 *5:43 5.49 
11 *5:43 *5:45 306.45 
12 *5:45 *5:47 4.5 
13 *5:47 *5:49 115.47 
14 *5:49 *600:io_in[8] 28.665 
15 *5:39 *601:io_in[8] 15.795 
*END

*D_NET *6 0.845953
*CONN
*P io_in[14] I
*I *599:io_in[14] I *D multiplexer
*I *600:io_in[9] I *D wrapped_sid
*I *601:io_in[9] I *D wrapped_qcpu
*CAP
1 io_in[14] 0.00135127
2 *599:io_in[14] 0.00304285
3 *600:io_in[9] 0.000876893
4 *601:io_in[9] 0.00196983
5 *6:51 0.0179738
6 *6:49 0.0149309
7 *6:47 0.00114212
8 *6:43 0.00364301
9 *6:33 0.0041476
10 *6:31 0.0057716
11 *6:29 0.00930185
12 *6:27 0.00930185
13 *6:17 0.0461089
14 *6:15 0.0441391
15 *6:13 0.0120411
16 *6:11 0.0120411
17 *6:9 0.0411745
18 *6:7 0.0425258
19 *599:io_in[14] *599:io_in[15] 0.0179439
20 *599:io_in[14] *13:23 0.000563943
21 *6:9 *44:17 0.027966
22 *6:13 *80:9 0.0695061
23 *6:29 *7:37 0.130331
24 *6:29 *477:9 0.000274007
25 *6:29 *478:9 0.0764363
26 *6:29 *486:9 0.00364563
27 *6:29 *562:7 0
28 *6:33 *599:wbs_adr_i[29] 0.00148207
29 *6:33 *600:io_in[14] 0.0112943
30 *6:33 *600:io_in[27] 0.0138378
31 *6:33 *600:io_in[28] 0.0120875
32 *6:33 *7:41 0.00191694
33 *6:33 *26:31 0.00255217
34 *6:33 *27:47 0.000112158
35 *6:33 *27:51 0.00199202
36 *6:33 *388:17 0.000734533
37 *6:33 *405:25 0.0260924
38 *6:43 *26:31 0.0298908
39 *6:43 *27:45 0.000460073
40 *6:43 *27:47 0.00563688
41 *6:43 *549:9 0.00012775
42 *6:43 *550:11 0.00133848
43 *6:47 *13:31 0
44 *6:47 *28:21 0.0149262
45 *6:47 *548:19 3.38164e-05
46 *6:47 *551:15 0.000243928
47 *6:47 *556:17 0.0153013
48 *6:51 *7:59 0.069271
49 *6:51 *48:9 0.000215596
50 *6:51 *61:6 0.0301193
51 *6:51 *71:9 0.00813502
52 *6:51 *554:17 0
53 *601:io_in[8] *601:io_in[9] 0
54 *5:9 *6:17 0
*RES
1 io_in[14] *6:7 12.825 
2 *6:7 *6:9 316.17 
3 *6:9 *6:11 4.5 
4 *6:11 *6:13 180.99 
5 *6:13 *6:15 4.5 
6 *6:15 *6:17 326.79 
7 *6:17 *601:io_in[9] 12.555 
8 *6:17 *6:27 4.5 
9 *6:27 *6:29 328.95 
10 *6:29 *6:31 4.5 
11 *6:31 *6:33 119.61 
12 *6:33 *600:io_in[9] 10.125 
13 *6:31 *6:43 76.23 
14 *6:43 *6:47 48.51 
15 *6:47 *6:49 4.5 
16 *6:49 *6:51 238.465 
17 *6:51 *599:io_in[14] 37.0678 
*END

*D_NET *7 0.768761
*CONN
*P io_in[15] I
*I *599:io_in[15] I *D multiplexer
*I *600:io_in[10] I *D wrapped_sid
*I *601:io_in[10] I *D wrapped_qcpu
*CAP
1 io_in[15] 0.00516883
2 *599:io_in[15] 0.00332383
3 *600:io_in[10] 0.000816564
4 *601:io_in[10] 0.00193751
5 *7:59 0.0115937
6 *7:57 0.00826986
7 *7:55 0.0016897
8 *7:51 0.00231418
9 *7:41 0.00130969
10 *7:39 0.0011176
11 *7:37 0.0231949
12 *7:35 0.0231949
13 *7:21 0.042302
14 *7:19 0.0403645
15 *7:17 0.0169154
16 *7:15 0.0169154
17 *7:13 0.0508428
18 *7:11 0.0508428
19 *7:9 0.00516883
20 *599:io_in[15] *9:57 0.000730978
21 *599:io_in[15] *15:19 0.000252475
22 *599:io_in[15] *16:19 0.000426761
23 *599:io_in[15] *21:21 0.000620726
24 *601:io_in[10] *601:io_in[11] 0
25 *601:io_in[10] *8:29 0
26 *7:21 *8:29 0
27 *7:37 *10:71 0
28 *7:37 *478:9 0.000503217
29 *7:41 *600:io_in[26] 0.0155821
30 *7:41 *600:io_in[27] 0.0138458
31 *7:41 *9:69 0.00017121
32 *7:41 *25:25 0.00243157
33 *7:41 *26:31 0.00245635
34 *7:41 *388:17 0.00204819
35 *7:41 *402:17 0.0259957
36 *7:41 *405:25 0.0243959
37 *7:51 *599:wbs_adr_i[29] 0
38 *7:51 *25:25 0.0550706
39 *7:51 *26:31 0.053884
40 *7:51 *549:9 0.000150602
41 *7:51 *550:11 0.00179747
42 *7:51 *553:9 0.000727893
43 *7:55 *599:wbs_adr_i[10] 0.000853771
44 *7:55 *31:41 0.00838686
45 *7:55 *560:13 0.0171135
46 *7:59 *42:9 0
47 *7:59 *43:9 0.0042387
48 *7:59 *71:9 0.00917919
49 *7:59 *74:11 0.000268166
50 *7:59 *554:17 0
51 *599:io_in[14] *599:io_in[15] 0.0179439
52 *2:19 *599:io_in[15] 0.000432436
53 *5:21 *599:io_in[15] 0.000451161
54 *6:29 *7:37 0.130331
55 *6:33 *7:41 0.00191694
56 *6:51 *7:59 0.069271
*RES
1 io_in[15] *7:9 46.755 
2 *7:9 *7:11 4.5 
3 *7:11 *7:13 388.89 
4 *7:13 *7:15 4.5 
5 *7:15 *7:17 135.09 
6 *7:17 *7:19 4.5 
7 *7:19 *7:21 299.79 
8 *7:21 *601:io_in[10] 12.555 
9 *7:21 *7:35 4.5 
10 *7:35 *7:37 332.01 
11 *7:37 *7:39 4.5 
12 *7:39 *7:41 115.11 
13 *7:41 *600:io_in[10] 9.765 
14 *7:39 *7:51 141.21 
15 *7:51 *7:55 48.33 
16 *7:55 *7:57 4.5 
17 *7:57 *7:59 173.954 
18 *7:59 *599:io_in[15] 38.3498 
*END

*D_NET *8 0.613983
*CONN
*P io_in[16] I
*I *599:io_in[16] I *D multiplexer
*I *600:io_in[11] I *D wrapped_sid
*I *601:io_in[11] I *D wrapped_qcpu
*CAP
1 io_in[16] 0.046033
2 *599:io_in[16] 0.000874299
3 *600:io_in[11] 0.00888556
4 *601:io_in[11] 0.000490953
5 *8:57 0.0210709
6 *8:55 0.0201966
7 *8:47 0.00888556
8 *8:45 0.0133351