*SPEF "ieee 1481-1999"
*DESIGN "user_project_wrapper"
*DATE "11:11:11 Fri 11 11, 1111"
*VENDOR "OpenRCX"
*PROGRAM "Parallel Extraction"
*VERSION "1.0"
*DESIGN_FLOW "NAME_SCOPE LOCAL" "PIN_CAP NONE"
*DIVIDER /
*DELIMITER :
*BUS_DELIMITER []
*T_UNIT 1 NS
*C_UNIT 1 PF
*R_UNIT 1 OHM
*L_UNIT 1 HENRY

*NAME_MAP
*1 io_in[0]
*2 io_in[10]
*3 io_in[11]
*4 io_in[12]
*5 io_in[13]
*6 io_in[14]
*7 io_in[15]
*8 io_in[16]
*9 io_in[17]
*10 io_in[18]
*11 io_in[19]
*12 io_in[1]
*13 io_in[20]
*14 io_in[21]
*15 io_in[22]
*16 io_in[23]
*17 io_in[24]
*18 io_in[25]
*19 io_in[26]
*20 io_in[27]
*21 io_in[28]
*22 io_in[29]
*23 io_in[2]
*24 io_in[30]
*25 io_in[31]
*26 io_in[32]
*27 io_in[33]
*28 io_in[34]
*29 io_in[35]
*30 io_in[36]
*31 io_in[37]
*32 io_in[3]
*33 io_in[4]
*34 io_in[5]
*35 io_in[6]
*36 io_in[7]
*37 io_in[8]
*38 io_in[9]
*39 io_oeb[0]
*40 io_oeb[10]
*41 io_oeb[11]
*42 io_oeb[12]
*43 io_oeb[13]
*44 io_oeb[14]
*45 io_oeb[15]
*46 io_oeb[16]
*47 io_oeb[17]
*48 io_oeb[18]
*49 io_oeb[19]
*50 io_oeb[1]
*51 io_oeb[20]
*52 io_oeb[21]
*53 io_oeb[22]
*54 io_oeb[23]
*55 io_oeb[24]
*56 io_oeb[25]
*57 io_oeb[26]
*58 io_oeb[27]
*59 io_oeb[28]
*60 io_oeb[29]
*61 io_oeb[2]
*62 io_oeb[30]
*63 io_oeb[31]
*64 io_oeb[32]
*65 io_oeb[33]
*66 io_oeb[34]
*67 io_oeb[35]
*68 io_oeb[36]
*69 io_oeb[37]
*70 io_oeb[3]
*71 io_oeb[4]
*72 io_oeb[5]
*73 io_oeb[6]
*74 io_oeb[7]
*75 io_oeb[8]
*76 io_oeb[9]
*77 io_out[0]
*78 io_out[10]
*79 io_out[11]
*80 io_out[12]
*81 io_out[13]
*82 io_out[14]
*83 io_out[15]
*84 io_out[16]
*85 io_out[17]
*86 io_out[18]
*87 io_out[19]
*88 io_out[1]
*89 io_out[20]
*90 io_out[21]
*91 io_out[22]
*92 io_out[23]
*93 io_out[24]
*94 io_out[25]
*95 io_out[26]
*96 io_out[27]
*97 io_out[28]
*98 io_out[29]
*99 io_out[2]
*100 io_out[30]
*101 io_out[31]
*102 io_out[32]
*103 io_out[33]
*104 io_out[34]
*105 io_out[35]
*106 io_out[36]
*107 io_out[37]
*108 io_out[3]
*109 io_out[4]
*110 io_out[5]
*111 io_out[6]
*112 io_out[7]
*113 io_out[8]
*114 io_out[9]
*115 la_data_in[0]
*116 la_data_in[10]
*117 la_data_in[11]
*118 la_data_in[12]
*119 la_data_in[13]
*120 la_data_in[14]
*121 la_data_in[15]
*122 la_data_in[16]
*123 la_data_in[17]
*124 la_data_in[18]
*125 la_data_in[19]
*126 la_data_in[1]
*127 la_data_in[20]
*128 la_data_in[21]
*129 la_data_in[22]
*130 la_data_in[23]
*131 la_data_in[24]
*132 la_data_in[25]
*133 la_data_in[26]
*134 la_data_in[27]
*135 la_data_in[28]
*136 la_data_in[29]
*137 la_data_in[2]
*138 la_data_in[30]
*139 la_data_in[31]
*140 la_data_in[32]
*141 la_data_in[33]
*142 la_data_in[34]
*143 la_data_in[35]
*144 la_data_in[36]
*145 la_data_in[37]
*146 la_data_in[38]
*147 la_data_in[39]
*148 la_data_in[3]
*149 la_data_in[40]
*150 la_data_in[41]
*151 la_data_in[42]
*152 la_data_in[43]
*153 la_data_in[44]
*154 la_data_in[45]
*155 la_data_in[46]
*156 la_data_in[47]
*157 la_data_in[48]
*158 la_data_in[49]
*159 la_data_in[4]
*160 la_data_in[50]
*161 la_data_in[51]
*162 la_data_in[52]
*163 la_data_in[53]
*164 la_data_in[54]
*165 la_data_in[55]
*166 la_data_in[56]
*167 la_data_in[57]
*168 la_data_in[58]
*169 la_data_in[59]
*170 la_data_in[5]
*171 la_data_in[60]
*172 la_data_in[61]
*173 la_data_in[62]
*174 la_data_in[63]
*175 la_data_in[6]
*176 la_data_in[7]
*177 la_data_in[8]
*178 la_data_in[9]
*179 la_data_out[0]
*180 la_data_out[10]
*181 la_data_out[11]
*182 la_data_out[12]
*183 la_data_out[13]
*184 la_data_out[14]
*185 la_data_out[15]
*186 la_data_out[16]
*187 la_data_out[17]
*188 la_data_out[18]
*189 la_data_out[19]
*190 la_data_out[1]
*191 la_data_out[20]
*192 la_data_out[21]
*193 la_data_out[22]
*194 la_data_out[23]
*195 la_data_out[24]
*196 la_data_out[25]
*197 la_data_out[26]
*198 la_data_out[27]
*199 la_data_out[28]
*200 la_data_out[29]
*201 la_data_out[2]
*202 la_data_out[30]
*203 la_data_out[31]
*204 la_data_out[32]
*205 la_data_out[33]
*206 la_data_out[34]
*207 la_data_out[35]
*208 la_data_out[36]
*209 la_data_out[37]
*210 la_data_out[38]
*211 la_data_out[39]
*212 la_data_out[3]
*213 la_data_out[40]
*214 la_data_out[41]
*215 la_data_out[42]
*216 la_data_out[43]
*217 la_data_out[44]
*218 la_data_out[45]
*219 la_data_out[46]
*220 la_data_out[47]
*221 la_data_out[48]
*222 la_data_out[49]
*223 la_data_out[4]
*224 la_data_out[50]
*225 la_data_out[51]
*226 la_data_out[52]
*227 la_data_out[53]
*228 la_data_out[54]
*229 la_data_out[55]
*230 la_data_out[56]
*231 la_data_out[57]
*232 la_data_out[58]
*233 la_data_out[59]
*234 la_data_out[5]
*235 la_data_out[60]
*236 la_data_out[61]
*237 la_data_out[62]
*238 la_data_out[63]
*239 la_data_out[6]
*240 la_data_out[7]
*241 la_data_out[8]
*242 la_data_out[9]
*243 la_oenb[0]
*244 la_oenb[10]
*245 la_oenb[11]
*246 la_oenb[12]
*247 la_oenb[13]
*248 la_oenb[14]
*249 la_oenb[15]
*250 la_oenb[16]
*251 la_oenb[17]
*252 la_oenb[18]
*253 la_oenb[19]
*254 la_oenb[1]
*255 la_oenb[20]
*256 la_oenb[21]
*257 la_oenb[22]
*258 la_oenb[23]
*259 la_oenb[24]
*260 la_oenb[25]
*261 la_oenb[26]
*262 la_oenb[27]
*263 la_oenb[28]
*264 la_oenb[29]
*265 la_oenb[2]
*266 la_oenb[30]
*267 la_oenb[31]
*268 la_oenb[32]
*269 la_oenb[33]
*270 la_oenb[34]
*271 la_oenb[35]
*272 la_oenb[36]
*273 la_oenb[37]
*274 la_oenb[38]
*275 la_oenb[39]
*276 la_oenb[3]
*277 la_oenb[40]
*278 la_oenb[41]
*279 la_oenb[42]
*280 la_oenb[43]
*281 la_oenb[44]
*282 la_oenb[45]
*283 la_oenb[46]
*284 la_oenb[47]
*285 la_oenb[48]
*286 la_oenb[49]
*287 la_oenb[4]
*288 la_oenb[50]
*289 la_oenb[51]
*290 la_oenb[52]
*291 la_oenb[53]
*292 la_oenb[54]
*293 la_oenb[55]
*294 la_oenb[56]
*295 la_oenb[57]
*296 la_oenb[58]
*297 la_oenb[59]
*298 la_oenb[5]
*299 la_oenb[60]
*300 la_oenb[61]
*301 la_oenb[62]
*302 la_oenb[63]
*303 la_oenb[6]
*304 la_oenb[7]
*305 la_oenb[8]
*306 la_oenb[9]
*307 user_clock2
*308 user_irq[0]
*309 user_irq[1]
*310 user_irq[2]
*313 wb_clk_i
*314 wb_rst_i
*315 wbs_ack_o
*316 wbs_adr_i[0]
*317 wbs_adr_i[10]
*318 wbs_adr_i[11]
*319 wbs_adr_i[12]
*320 wbs_adr_i[13]
*321 wbs_adr_i[14]
*322 wbs_adr_i[15]
*323 wbs_adr_i[16]
*324 wbs_adr_i[17]
*325 wbs_adr_i[18]
*326 wbs_adr_i[19]
*327 wbs_adr_i[1]
*328 wbs_adr_i[20]
*329 wbs_adr_i[21]
*330 wbs_adr_i[22]
*331 wbs_adr_i[23]
*332 wbs_adr_i[24]
*333 wbs_adr_i[25]
*334 wbs_adr_i[26]
*335 wbs_adr_i[27]
*336 wbs_adr_i[28]
*337 wbs_adr_i[29]
*338 wbs_adr_i[2]
*339 wbs_adr_i[30]
*340 wbs_adr_i[31]
*341 wbs_adr_i[3]
*342 wbs_adr_i[4]
*343 wbs_adr_i[5]
*344 wbs_adr_i[6]
*345 wbs_adr_i[7]
*346 wbs_adr_i[8]
*347 wbs_adr_i[9]
*348 wbs_cyc_i
*349 wbs_dat_i[0]
*350 wbs_dat_i[10]
*351 wbs_dat_i[11]
*352 wbs_dat_i[12]
*353 wbs_dat_i[13]
*354 wbs_dat_i[14]
*355 wbs_dat_i[15]
*356 wbs_dat_i[16]
*357 wbs_dat_i[17]
*358 wbs_dat_i[18]
*359 wbs_dat_i[19]
*360 wbs_dat_i[1]
*361 wbs_dat_i[20]
*362 wbs_dat_i[21]
*363 wbs_dat_i[22]
*364 wbs_dat_i[23]
*365 wbs_dat_i[24]
*366 wbs_dat_i[25]
*367 wbs_dat_i[26]
*368 wbs_dat_i[27]
*369 wbs_dat_i[28]
*370 wbs_dat_i[29]
*371 wbs_dat_i[2]
*372 wbs_dat_i[30]
*373 wbs_dat_i[31]
*374 wbs_dat_i[3]
*375 wbs_dat_i[4]
*376 wbs_dat_i[5]
*377 wbs_dat_i[6]
*378 wbs_dat_i[7]
*379 wbs_dat_i[8]
*380 wbs_dat_i[9]
*381 wbs_dat_o[0]
*382 wbs_dat_o[10]
*383 wbs_dat_o[11]
*384 wbs_dat_o[12]
*385 wbs_dat_o[13]
*386 wbs_dat_o[14]
*387 wbs_dat_o[15]
*388 wbs_dat_o[16]
*389 wbs_dat_o[17]
*390 wbs_dat_o[18]
*391 wbs_dat_o[19]
*392 wbs_dat_o[1]
*393 wbs_dat_o[20]
*394 wbs_dat_o[21]
*395 wbs_dat_o[22]
*396 wbs_dat_o[23]
*397 wbs_dat_o[24]
*398 wbs_dat_o[25]
*399 wbs_dat_o[26]
*400 wbs_dat_o[27]
*401 wbs_dat_o[28]
*402 wbs_dat_o[29]
*403 wbs_dat_o[2]
*404 wbs_dat_o[30]
*405 wbs_dat_o[31]
*406 wbs_dat_o[3]
*407 wbs_dat_o[4]
*408 wbs_dat_o[5]
*409 wbs_dat_o[6]
*410 wbs_dat_o[7]
*411 wbs_dat_o[8]
*412 wbs_dat_o[9]
*413 wbs_sel_i[0]
*414 wbs_sel_i[1]
*415 wbs_sel_i[2]
*416 wbs_sel_i[3]
*417 wbs_stb_i
*418 wbs_we_i
*419 ay8913_do\[0\]
*420 ay8913_do\[10\]
*421 ay8913_do\[11\]
*422 ay8913_do\[12\]
*423 ay8913_do\[13\]
*424 ay8913_do\[14\]
*425 ay8913_do\[15\]
*426 ay8913_do\[16\]
*427 ay8913_do\[17\]
*428 ay8913_do\[18\]
*429 ay8913_do\[19\]
*430 ay8913_do\[1\]
*431 ay8913_do\[20\]
*432 ay8913_do\[21\]
*433 ay8913_do\[22\]
*434 ay8913_do\[23\]
*435 ay8913_do\[24\]
*436 ay8913_do\[25\]
*437 ay8913_do\[26\]
*438 ay8913_do\[27\]
*439 ay8913_do\[2\]
*440 ay8913_do\[3\]
*441 ay8913_do\[4\]
*442 ay8913_do\[5\]
*443 ay8913_do\[6\]
*444 ay8913_do\[7\]
*445 ay8913_do\[8\]
*446 ay8913_do\[9\]
*447 blinker_do\[0\]
*448 blinker_do\[1\]
*449 blinker_do\[2\]
*450 custom_settings\[0\]
*451 custom_settings\[10\]
*452 custom_settings\[11\]
*453 custom_settings\[12\]
*454 custom_settings\[13\]
*455 custom_settings\[14\]
*456 custom_settings\[15\]
*457 custom_settings\[16\]
*458 custom_settings\[17\]
*459 custom_settings\[18\]
*460 custom_settings\[19\]
*461 custom_settings\[1\]
*462 custom_settings\[20\]
*463 custom_settings\[21\]
*464 custom_settings\[22\]
*465 custom_settings\[23\]
*466 custom_settings\[24\]
*467 custom_settings\[25\]
*468 custom_settings\[26\]
*469 custom_settings\[27\]
*470 custom_settings\[28\]
*471 custom_settings\[29\]
*472 custom_settings\[2\]
*473 custom_settings\[30\]
*474 custom_settings\[31\]
*475 custom_settings\[3\]
*476 custom_settings\[4\]
*477 custom_settings\[5\]
*478 custom_settings\[6\]
*479 custom_settings\[7\]
*480 custom_settings\[8\]
*481 custom_settings\[9\]
*482 diceroll_do\[0\]
*483 diceroll_do\[1\]
*484 diceroll_do\[2\]
*485 diceroll_do\[3\]
*486 diceroll_do\[4\]
*487 diceroll_do\[5\]
*488 diceroll_do\[6\]
*489 diceroll_do\[7\]
*490 diceroll_do\[8\]
*491 hellorld_do
*492 mc14500_do\[0\]
*493 mc14500_do\[10\]
*494 mc14500_do\[11\]
*495 mc14500_do\[12\]
*496 mc14500_do\[13\]
*497 mc14500_do\[14\]
*498 mc14500_do\[15\]
*499 mc14500_do\[16\]
*500 mc14500_do\[17\]
*501 mc14500_do\[18\]
*502 mc14500_do\[19\]
*503 mc14500_do\[1\]
*504 mc14500_do\[20\]
*505 mc14500_do\[21\]
*506 mc14500_do\[22\]
*507 mc14500_do\[23\]
*508 mc14500_do\[24\]
*509 mc14500_do\[25\]
*510 mc14500_do\[26\]
*511 mc14500_do\[27\]
*512 mc14500_do\[28\]
*513 mc14500_do\[29\]
*514 mc14500_do\[2\]
*515 mc14500_do\[30\]
*516 mc14500_do\[3\]
*517 mc14500_do\[4\]
*518 mc14500_do\[5\]
*519 mc14500_do\[6\]
*520 mc14500_do\[7\]
*521 mc14500_do\[8\]
*522 mc14500_do\[9\]
*523 mc14500_sram_addr\[0\]
*524 mc14500_sram_addr\[1\]
*525 mc14500_sram_addr\[2\]
*526 mc14500_sram_addr\[3\]
*527 mc14500_sram_addr\[4\]
*528 mc14500_sram_addr\[5\]
*529 mc14500_sram_gwe
*530 mc14500_sram_in\[0\]
*531 mc14500_sram_in\[1\]
*532 mc14500_sram_in\[2\]
*533 mc14500_sram_in\[3\]
*534 mc14500_sram_in\[4\]
*535 mc14500_sram_in\[5\]
*536 mc14500_sram_in\[6\]
*537 mc14500_sram_in\[7\]
*538 pdp11_do\[0\]
*539 pdp11_do\[10\]
*540 pdp11_do\[11\]
*541 pdp11_do\[12\]
*542 pdp11_do\[13\]
*543 pdp11_do\[14\]
*544 pdp11_do\[15\]
*545 pdp11_do\[16\]
*546 pdp11_do\[17\]
*547 pdp11_do\[18\]
*548 pdp11_do\[19\]
*549 pdp11_do\[1\]
*550 pdp11_do\[20\]
*551 pdp11_do\[21\]
*552 pdp11_do\[22\]
*553 pdp11_do\[23\]
*554 pdp11_do\[24\]
*555 pdp11_do\[25\]
*556 pdp11_do\[26\]
*557 pdp11_do\[27\]
*558 pdp11_do\[28\]
*559 pdp11_do\[29\]
*560 pdp11_do\[2\]
*561 pdp11_do\[30\]
*562 pdp11_do\[31\]
*563 pdp11_do\[32\]
*564 pdp11_do\[3\]
*565 pdp11_do\[4\]
*566 pdp11_do\[5\]
*567 pdp11_do\[6\]
*568 pdp11_do\[7\]
*569 pdp11_do\[8\]
*570 pdp11_do\[9\]
*571 pdp11_oeb\[0\]
*572 pdp11_oeb\[10\]
*573 pdp11_oeb\[11\]
*574 pdp11_oeb\[12\]
*575 pdp11_oeb\[13\]
*576 pdp11_oeb\[14\]
*577 pdp11_oeb\[15\]
*578 pdp11_oeb\[16\]
*579 pdp11_oeb\[17\]
*580 pdp11_oeb\[18\]
*581 pdp11_oeb\[19\]
*582 pdp11_oeb\[1\]
*583 pdp11_oeb\[20\]
*584 pdp11_oeb\[21\]
*585 pdp11_oeb\[22\]
*586 pdp11_oeb\[23\]
*587 pdp11_oeb\[24\]
*588 pdp11_oeb\[25\]
*589 pdp11_oeb\[26\]
*590 pdp11_oeb\[27\]
*591 pdp11_oeb\[28\]
*592 pdp11_oeb\[29\]
*593 pdp11_oeb\[2\]
*594 pdp11_oeb\[30\]
*595 pdp11_oeb\[31\]
*596 pdp11_oeb\[32\]
*597 pdp11_oeb\[3\]
*598 pdp11_oeb\[4\]
*599 pdp11_oeb\[5\]
*600 pdp11_oeb\[6\]
*601 pdp11_oeb\[7\]
*602 pdp11_oeb\[8\]
*603 pdp11_oeb\[9\]
*604 qcpu_do\[0\]
*605 qcpu_do\[10\]
*606 qcpu_do\[11\]
*607 qcpu_do\[12\]
*608 qcpu_do\[13\]
*609 qcpu_do\[14\]
*610 qcpu_do\[15\]
*611 qcpu_do\[16\]
*612 qcpu_do\[17\]
*613 qcpu_do\[18\]
*614 qcpu_do\[19\]
*615 qcpu_do\[1\]
*616 qcpu_do\[20\]
*617 qcpu_do\[21\]
*618 qcpu_do\[22\]
*619 qcpu_do\[23\]
*620 qcpu_do\[24\]
*621 qcpu_do\[25\]
*622 qcpu_do\[26\]
*623 qcpu_do\[27\]
*624 qcpu_do\[28\]
*625 qcpu_do\[29\]
*626 qcpu_do\[2\]
*627 qcpu_do\[30\]
*628 qcpu_do\[31\]
*629 qcpu_do\[32\]
*630 qcpu_do\[3\]
*631 qcpu_do\[4\]
*632 qcpu_do\[5\]
*633 qcpu_do\[6\]
*634 qcpu_do\[7\]
*635 qcpu_do\[8\]
*636 qcpu_do\[9\]
*637 qcpu_oeb\[0\]
*638 qcpu_oeb\[10\]
*639 qcpu_oeb\[11\]
*640 qcpu_oeb\[12\]
*641 qcpu_oeb\[13\]
*642 qcpu_oeb\[14\]
*643 qcpu_oeb\[15\]
*644 qcpu_oeb\[16\]
*645 qcpu_oeb\[17\]
*646 qcpu_oeb\[18\]
*647 qcpu_oeb\[19\]
*648 qcpu_oeb\[1\]
*649 qcpu_oeb\[20\]
*650 qcpu_oeb\[21\]
*651 qcpu_oeb\[22\]
*652 qcpu_oeb\[23\]
*653 qcpu_oeb\[24\]
*654 qcpu_oeb\[25\]
*655 qcpu_oeb\[26\]
*656 qcpu_oeb\[27\]
*657 qcpu_oeb\[28\]
*658 qcpu_oeb\[29\]
*659 qcpu_oeb\[2\]
*660 qcpu_oeb\[30\]
*661 qcpu_oeb\[31\]
*662 qcpu_oeb\[32\]
*663 qcpu_oeb\[3\]
*664 qcpu_oeb\[4\]
*665 qcpu_oeb\[5\]
*666 qcpu_oeb\[6\]
*667 qcpu_oeb\[7\]
*668 qcpu_oeb\[8\]
*669 qcpu_oeb\[9\]
*670 qcpu_sram_addr\[0\]
*671 qcpu_sram_addr\[1\]
*672 qcpu_sram_addr\[2\]
*673 qcpu_sram_addr\[3\]
*674 qcpu_sram_addr\[4\]
*675 qcpu_sram_addr\[5\]
*676 qcpu_sram_gwe
*677 qcpu_sram_in\[0\]
*678 qcpu_sram_in\[1\]
*679 qcpu_sram_in\[2\]
*680 qcpu_sram_in\[3\]
*681 qcpu_sram_in\[4\]
*682 qcpu_sram_in\[5\]
*683 qcpu_sram_in\[6\]
*684 qcpu_sram_in\[7\]
*685 qcpu_sram_out\[0\]
*686 qcpu_sram_out\[1\]
*687 qcpu_sram_out\[2\]
*688 qcpu_sram_out\[3\]
*689 qcpu_sram_out\[4\]
*690 qcpu_sram_out\[5\]
*691 qcpu_sram_out\[6\]
*692 qcpu_sram_out\[7\]
*693 rst_ay8913
*694 rst_blinker
*695 rst_diceroll
*696 rst_hellorld
*697 rst_mc14500
*698 rst_pdp11
*699 rst_qcpu
*700 rst_sid
*701 rst_sn76489
*702 rst_tbb1143
*703 rst_tholin_riscv
*704 rst_ue1
*705 sid_do\[0\]
*706 sid_do\[10\]
*707 sid_do\[11\]
*708 sid_do\[12\]
*709 sid_do\[13\]
*710 sid_do\[14\]
*711 sid_do\[15\]
*712 sid_do\[16\]
*713 sid_do\[17\]
*714 sid_do\[18\]
*715 sid_do\[19\]
*716 sid_do\[1\]
*717 sid_do\[20\]
*718 sid_do\[2\]
*719 sid_do\[3\]
*720 sid_do\[4\]
*721 sid_do\[5\]
*722 sid_do\[6\]
*723 sid_do\[7\]
*724 sid_do\[8\]
*725 sid_do\[9\]
*726 sid_oeb
*727 sn76489_do\[0\]
*728 sn76489_do\[10\]
*729 sn76489_do\[11\]
*730 sn76489_do\[12\]
*731 sn76489_do\[13\]
*732 sn76489_do\[14\]
*733 sn76489_do\[15\]
*734 sn76489_do\[16\]
*735 sn76489_do\[17\]
*736 sn76489_do\[18\]
*737 sn76489_do\[19\]
*738 sn76489_do\[1\]
*739 sn76489_do\[20\]
*740 sn76489_do\[21\]
*741 sn76489_do\[22\]
*742 sn76489_do\[23\]
*743 sn76489_do\[24\]
*744 sn76489_do\[25\]
*745 sn76489_do\[26\]
*746 sn76489_do\[27\]
*747 sn76489_do\[2\]
*748 sn76489_do\[3\]
*749 sn76489_do\[4\]
*750 sn76489_do\[5\]
*751 sn76489_do\[6\]
*752 sn76489_do\[7\]
*753 sn76489_do\[8\]
*754 sn76489_do\[9\]
*755 tbb1143_do\[0\]
*756 tbb1143_do\[1\]
*757 tbb1143_do\[2\]
*758 tbb1143_do\[3\]
*759 tbb1143_do\[4\]
*760 tholin_riscv_do\[0\]
*761 tholin_riscv_do\[10\]
*762 tholin_riscv_do\[11\]
*763 tholin_riscv_do\[12\]
*764 tholin_riscv_do\[13\]
*765 tholin_riscv_do\[14\]
*766 tholin_riscv_do\[15\]
*767 tholin_riscv_do\[16\]
*768 tholin_riscv_do\[17\]
*769 tholin_riscv_do\[18\]
*770 tholin_riscv_do\[19\]
*771 tholin_riscv_do\[1\]
*772 tholin_riscv_do\[20\]
*773 tholin_riscv_do\[21\]
*774 tholin_riscv_do\[22\]
*775 tholin_riscv_do\[23\]
*776 tholin_riscv_do\[24\]
*777 tholin_riscv_do\[25\]
*778 tholin_riscv_do\[26\]
*779 tholin_riscv_do\[27\]
*780 tholin_riscv_do\[28\]
*781 tholin_riscv_do\[29\]
*782 tholin_riscv_do\[2\]
*783 tholin_riscv_do\[30\]
*784 tholin_riscv_do\[31\]
*785 tholin_riscv_do\[32\]
*786 tholin_riscv_do\[3\]
*787 tholin_riscv_do\[4\]
*788 tholin_riscv_do\[5\]
*789 tholin_riscv_do\[6\]
*790 tholin_riscv_do\[7\]
*791 tholin_riscv_do\[8\]
*792 tholin_riscv_do\[9\]
*793 tholin_riscv_oeb\[0\]
*794 tholin_riscv_oeb\[10\]
*795 tholin_riscv_oeb\[11\]
*796 tholin_riscv_oeb\[12\]
*797 tholin_riscv_oeb\[13\]
*798 tholin_riscv_oeb\[14\]
*799 tholin_riscv_oeb\[15\]
*800 tholin_riscv_oeb\[16\]
*801 tholin_riscv_oeb\[17\]
*802 tholin_riscv_oeb\[18\]
*803 tholin_riscv_oeb\[19\]
*804 tholin_riscv_oeb\[1\]
*805 tholin_riscv_oeb\[20\]
*806 tholin_riscv_oeb\[21\]
*807 tholin_riscv_oeb\[22\]
*808 tholin_riscv_oeb\[23\]
*809 tholin_riscv_oeb\[24\]
*810 tholin_riscv_oeb\[25\]
*811 tholin_riscv_oeb\[26\]
*812 tholin_riscv_oeb\[27\]
*813 tholin_riscv_oeb\[28\]
*814 tholin_riscv_oeb\[29\]
*815 tholin_riscv_oeb\[2\]
*816 tholin_riscv_oeb\[30\]
*817 tholin_riscv_oeb\[31\]
*818 tholin_riscv_oeb\[32\]
*819 tholin_riscv_oeb\[3\]
*820 tholin_riscv_oeb\[4\]
*821 tholin_riscv_oeb\[5\]
*822 tholin_riscv_oeb\[6\]
*823 tholin_riscv_oeb\[7\]
*824 tholin_riscv_oeb\[8\]
*825 tholin_riscv_oeb\[9\]
*826 ue1_do\[0\]
*827 ue1_do\[1\]
*828 ue1_do\[2\]
*829 ue1_do\[3\]
*830 ue1_do\[4\]
*831 ue1_do\[5\]
*832 ue1_do\[6\]
*833 ue1_do\[7\]
*834 ue1_do\[8\]
*835 ue1_do\[9\]
*836 ue1_oeb
*837 avali_logo
*838 ay8913
*839 blinker
*840 diceroll
*841 hellorld
*842 mc14500
*843 multiplexer
*844 sid
*845 tbb1143
*846 ue1
*847 wrapped_pdp11
*848 wrapped_qcpu
*849 wrapped_sn76489
*850 wrapped_tholin_riscv

*PORTS
io_in[0] I
io_in[10] I
io_in[11] I
io_in[12] I
io_in[13] I
io_in[14] I
io_in[15] I
io_in[16] I
io_in[17] I
io_in[18] I
io_in[19] I
io_in[1] I
io_in[20] I
io_in[21] I
io_in[22] I
io_in[23] I
io_in[24] I
io_in[25] I
io_in[26] I
io_in[27] I
io_in[28] I
io_in[29] I
io_in[2] I
io_in[30] I
io_in[31] I
io_in[32] I
io_in[33] I
io_in[34] I
io_in[35] I
io_in[36] I
io_in[37] I
io_in[3] I
io_in[4] I
io_in[5] I
io_in[6] I
io_in[7] I
io_in[8] I
io_in[9] I
io_oeb[0] O
io_oeb[10] O
io_oeb[11] O
io_oeb[12] O
io_oeb[13] O
io_oeb[14] O
io_oeb[15] O
io_oeb[16] O
io_oeb[17] O
io_oeb[18] O
io_oeb[19] O
io_oeb[1] O
io_oeb[20] O
io_oeb[21] O
io_oeb[22] O
io_oeb[23] O
io_oeb[24] O
io_oeb[25] O
io_oeb[26] O
io_oeb[27] O
io_oeb[28] O
io_oeb[29] O
io_oeb[2] O
io_oeb[30] O
io_oeb[31] O
io_oeb[32] O
io_oeb[33] O
io_oeb[34] O
io_oeb[35] O
io_oeb[36] O
io_oeb[37] O
io_oeb[3] O
io_oeb[4] O
io_oeb[5] O
io_oeb[6] O
io_oeb[7] O
io_oeb[8] O
io_oeb[9] O
io_out[0] O
io_out[10] O
io_out[11] O
io_out[12] O
io_out[13] O
io_out[14] O
io_out[15] O
io_out[16] O
io_out[17] O
io_out[18] O
io_out[19] O
io_out[1] O
io_out[20] O
io_out[21] O
io_out[22] O
io_out[23] O
io_out[24] O
io_out[25] O
io_out[26] O
io_out[27] O
io_out[28] O
io_out[29] O
io_out[2] O
io_out[30] O
io_out[31] O
io_out[32] O
io_out[33] O
io_out[34] O
io_out[35] O
io_out[36] O
io_out[37] O
io_out[3] O
io_out[4] O
io_out[5] O
io_out[6] O
io_out[7] O
io_out[8] O
io_out[9] O
la_data_in[0] I
la_data_in[10] I
la_data_in[11] I
la_data_in[12] I
la_data_in[13] I
la_data_in[14] I
la_data_in[15] I
la_data_in[16] I
la_data_in[17] I
la_data_in[18] I
la_data_in[19] I
la_data_in[1] I
la_data_in[20] I
la_data_in[21] I
la_data_in[22] I
la_data_in[23] I
la_data_in[24] I
la_data_in[25] I
la_data_in[26] I
la_data_in[27] I
la_data_in[28] I
la_data_in[29] I
la_data_in[2] I
la_data_in[30] I
la_data_in[31] I
la_data_in[32] I
la_data_in[33] I
la_data_in[34] I
la_data_in[35] I
la_data_in[36] I
la_data_in[37] I
la_data_in[38] I
la_data_in[39] I
la_data_in[3] I
la_data_in[40] I
la_data_in[41] I
la_data_in[42] I
la_data_in[43] I
la_data_in[44] I
la_data_in[45] I
la_data_in[46] I
la_data_in[47] I
la_data_in[48] I
la_data_in[49] I
la_data_in[4] I
la_data_in[50] I
la_data_in[51] I
la_data_in[52] I
la_data_in[53] I
la_data_in[54] I
la_data_in[55] I
la_data_in[56] I
la_data_in[57] I
la_data_in[58] I
la_data_in[59] I
la_data_in[5] I
la_data_in[60] I
la_data_in[61] I
la_data_in[62] I
la_data_in[63] I
la_data_in[6] I
la_data_in[7] I
la_data_in[8] I
la_data_in[9] I
la_data_out[0] O
la_data_out[10] O
la_data_out[11] O
la_data_out[12] O
la_data_out[13] O
la_data_out[14] O
la_data_out[15] O
la_data_out[16] O
la_data_out[17] O
la_data_out[18] O
la_data_out[19] O
la_data_out[1] O
la_data_out[20] O
la_data_out[21] O
la_data_out[22] O
la_data_out[23] O
la_data_out[24] O
la_data_out[25] O
la_data_out[26] O
la_data_out[27] O
la_data_out[28] O
la_data_out[29] O
la_data_out[2] O
la_data_out[30] O
la_data_out[31] O
la_data_out[32] O
la_data_out[33] O
la_data_out[34] O
la_data_out[35] O
la_data_out[36] O
la_data_out[37] O
la_data_out[38] O
la_data_out[39] O
la_data_out[3] O
la_data_out[40] O
la_data_out[41] O
la_data_out[42] O
la_data_out[43] O
la_data_out[44] O
la_data_out[45] O
la_data_out[46] O
la_data_out[47] O
la_data_out[48] O
la_data_out[49] O
la_data_out[4] O
la_data_out[50] O
la_data_out[51] O
la_data_out[52] O
la_data_out[53] O
la_data_out[54] O
la_data_out[55] O
la_data_out[56] O
la_data_out[57] O
la_data_out[58] O
la_data_out[59] O
la_data_out[5] O
la_data_out[60] O
la_data_out[61] O
la_data_out[62] O
la_data_out[63] O
la_data_out[6] O
la_data_out[7] O
la_data_out[8] O
la_data_out[9] O
la_oenb[0] I
la_oenb[10] I
la_oenb[11] I
la_oenb[12] I
la_oenb[13] I
la_oenb[14] I
la_oenb[15] I
la_oenb[16] I
la_oenb[17] I
la_oenb[18] I
la_oenb[19] I
la_oenb[1] I
la_oenb[20] I
la_oenb[21] I
la_oenb[22] I
la_oenb[23] I
la_oenb[24] I
la_oenb[25] I
la_oenb[26] I
la_oenb[27] I
la_oenb[28] I
la_oenb[29] I
la_oenb[2] I
la_oenb[30] I
la_oenb[31] I
la_oenb[32] I
la_oenb[33] I
la_oenb[34] I
la_oenb[35] I
la_oenb[36] I
la_oenb[37] I
la_oenb[38] I
la_oenb[39] I
la_oenb[3] I
la_oenb[40] I
la_oenb[41] I
la_oenb[42] I
la_oenb[43] I
la_oenb[44] I
la_oenb[45] I
la_oenb[46] I
la_oenb[47] I
la_oenb[48] I
la_oenb[49] I
la_oenb[4] I
la_oenb[50] I
la_oenb[51] I
la_oenb[52] I
la_oenb[53] I
la_oenb[54] I
la_oenb[55] I
la_oenb[56] I
la_oenb[57] I
la_oenb[58] I
la_oenb[59] I
la_oenb[5] I
la_oenb[60] I
la_oenb[61] I
la_oenb[62] I
la_oenb[63] I
la_oenb[6] I
la_oenb[7] I
la_oenb[8] I
la_oenb[9] I
user_clock2 I
user_irq[0] O
user_irq[1] O
user_irq[2] O
wb_clk_i I
wb_rst_i I
wbs_ack_o O
wbs_adr_i[0] I
wbs_adr_i[10] I
wbs_adr_i[11] I
wbs_adr_i[12] I
wbs_adr_i[13] I
wbs_adr_i[14] I
wbs_adr_i[15] I
wbs_adr_i[16] I
wbs_adr_i[17] I
wbs_adr_i[18] I
wbs_adr_i[19] I
wbs_adr_i[1] I
wbs_adr_i[20] I
wbs_adr_i[21] I
wbs_adr_i[22] I
wbs_adr_i[23] I
wbs_adr_i[24] I
wbs_adr_i[25] I
wbs_adr_i[26] I
wbs_adr_i[27] I
wbs_adr_i[28] I
wbs_adr_i[29] I
wbs_adr_i[2] I
wbs_adr_i[30] I
wbs_adr_i[31] I
wbs_adr_i[3] I
wbs_adr_i[4] I
wbs_adr_i[5] I
wbs_adr_i[6] I
wbs_adr_i[7] I
wbs_adr_i[8] I
wbs_adr_i[9] I
wbs_cyc_i I
wbs_dat_i[0] I
wbs_dat_i[10] I
wbs_dat_i[11] I
wbs_dat_i[12] I
wbs_dat_i[13] I
wbs_dat_i[14] I
wbs_dat_i[15] I
wbs_dat_i[16] I
wbs_dat_i[17] I
wbs_dat_i[18] I
wbs_dat_i[19] I
wbs_dat_i[1] I
wbs_dat_i[20] I
wbs_dat_i[21] I
wbs_dat_i[22] I
wbs_dat_i[23] I
wbs_dat_i[24] I
wbs_dat_i[25] I
wbs_dat_i[26] I
wbs_dat_i[27] I
wbs_dat_i[28] I
wbs_dat_i[29] I
wbs_dat_i[2] I
wbs_dat_i[30] I
wbs_dat_i[31] I
wbs_dat_i[3] I
wbs_dat_i[4] I
wbs_dat_i[5] I
wbs_dat_i[6] I
wbs_dat_i[7] I
wbs_dat_i[8] I
wbs_dat_i[9] I
wbs_dat_o[0] O
wbs_dat_o[10] O
wbs_dat_o[11] O
wbs_dat_o[12] O
wbs_dat_o[13] O
wbs_dat_o[14] O
wbs_dat_o[15] O
wbs_dat_o[16] O
wbs_dat_o[17] O
wbs_dat_o[18] O
wbs_dat_o[19] O
wbs_dat_o[1] O
wbs_dat_o[20] O
wbs_dat_o[21] O
wbs_dat_o[22] O
wbs_dat_o[23] O
wbs_dat_o[24] O
wbs_dat_o[25] O
wbs_dat_o[26] O
wbs_dat_o[27] O
wbs_dat_o[28] O
wbs_dat_o[29] O
wbs_dat_o[2] O
wbs_dat_o[30] O
wbs_dat_o[31] O
wbs_dat_o[3] O
wbs_dat_o[4] O
wbs_dat_o[5] O
wbs_dat_o[6] O
wbs_dat_o[7] O
wbs_dat_o[8] O
wbs_dat_o[9] O
wbs_sel_i[0] I
wbs_sel_i[1] I
wbs_sel_i[2] I
wbs_sel_i[3] I
wbs_stb_i I
wbs_we_i I

*D_NET *1 0.821473
*CONN
*P io_in[0] I
*I *843:io_in_0 I *D multiplexer
*CAP
1 io_in[0] 0.00235863
2 *843:io_in_0 0.00266855
3 *1:13 0.0113717
4 *1:11 0.00870313
5 *1:9 0.0465813
6 *1:7 0.04894
7 *843:io_in_0 *77:11 0
8 *843:io_in_0 *77:15 0.00787663
9 *843:io_in_0 *435:17 0.000238073
10 *843:io_in_0 *444:18 8.25512e-05
11 *843:io_in_0 *694:11 0.000582703
12 *1:9 *88:23 0.247596
13 *1:13 *74:10 0
14 *1:13 *84:13 0.000123777
15 *1:13 *109:17 0.0978184
16 *1:13 *112:19 0.346532
17 *1:13 *459:31 0
*RES
1 io_in[0] *1:7 23.48 
2 *1:7 *1:9 716.727 
3 *1:9 *1:11 4.5 
4 *1:11 *1:13 309.572 
5 *1:13 *843:io_in_0 41.1751 
*END

*D_NET *2 1.54388
*CONN
*P io_in[10] I
*I *850:io_in[5] I *D wrapped_tholin_riscv
*I *842:io_in[5] I *D wrapped_mc14500
*I *844:io_in[5] I *D wrapped_sid
*I *849:io_in_1[5] I *D wrapped_sn76489
*I *848:io_in[5] I *D wrapped_qcpu
*I *847:io_in[5] I *D wrapped_pdp11
*I *838:io_in_1[5] I *D wrapped_ay8913
*I *846:io_in[4] I *D ue1
*I *845:io_in[5] I *D tholin_avalonsemi_tbb1143
*CAP
1 io_in[10] 0.00425535
2 *850:io_in[5] 0.000797025
3 *842:io_in[5] 0.0041033
4 *844:io_in[5] 0.00217046
5 *849:io_in_1[5] 8.31796e-05
6 *848:io_in[5] 0.00405597
7 *847:io_in[5] 0.000833524
8 *838:io_in_1[5] 0.000618095
9 *846:io_in[4] 0.00275758
10 *845:io_in[5] 0.000837524
11 *2:196 0.00591035
12 *2:186 0.00938799
13 *2:182 0.000926593
14 *2:174 0.00367966
15 *2:172 0.00725777
16 *2:156 0.00372168
17 *2:154 0.00155121
18 *2:152 0.00172885
19 *2:150 0.00172885
20 *2:139 0.000443497
21 *2:135 0.00830795
22 *2:133 0.00826575
23 *2:125 0.00902076
24 *2:121 0.00504187
25 *2:99 0.00607512
26 *2:93 0.00340133
27 *2:91 0.0010543
28 *2:85 0.00530608
29 *2:83 0.00496139
30 *2:81 0.0137498
31 *2:79 0.0137498
32 *2:61 0.0148466
33 *2:59 0.0142285
34 *2:43 0.0255165
35 *2:41 0.0227589
36 *2:31 0.00587928
37 *2:29 0.00895535
38 *2:25 0.00414637
39 *2:21 0.00200634
40 *2:19 0.0036497
41 *2:11 0.0482275
42 *2:9 0.0480305
43 *2:5 0.00510097
44 *844:io_in[5] *844:io_in[3] 0.00322788
45 *844:io_in[5] *844:io_in[6] 0.0104519
46 *844:io_in[5] *31:9 0
47 *844:io_in[5] *372:13 0
48 *846:io_in[4] *829:13 0
49 *848:io_in[5] *848:io_in[6] 0.00956587
50 *848:io_in[5] *848:io_in[9] 0.000417106
51 *848:io_in[5] *38:131 0.000363382
52 *848:io_in[5] *618:17 0
53 *2:5 *42:13 0.000397483
54 *2:5 *88:19 0.0011974
55 *2:9 *88:19 0.000361116
56 *2:11 *42:13 0.0455184
57 *2:11 *542:17 0.000247302
58 *2:11 *577:13 0.167178
59 *2:11 *592:13 0.000868387
60 *2:11 *803:9 0.00752645
61 *2:11 *806:9 0
62 *2:19 *3:152 0.000128172
63 *2:19 *10:17 0.00556028
64 *2:19 *11:17 0.00559324
65 *2:21 *4:23 0.00103618
66 *2:21 *10:17 0.00395743
67 *2:21 *11:17 0.00492264
68 *2:21 *18:21 0.0104315
69 *2:21 *19:21 0.00113412
70 *2:21 *82:17 0.0138226
71 *2:29 *37:148 0.000592773
72 *2:29 *38:87 0.00356162
73 *2:31 *38:87 0.0273392
74 *2:43 *18:21 0.00160427
75 *2:61 *34:134 0.00306388
76 *2:61 *34:176 0.000589913
77 *2:61 *38:75 0.101699
78 *2:81 *3:19 0.0303336
79 *2:81 *38:107 0.170423
80 *2:85 *38:111 0
81 *2:85 *652:13 0.0171817
82 *2:85 *653:13 0.00154987
83 *2:91 *779:7 0.000262918
84 *2:93 *35:13 0.0393102
85 *2:93 *38:119 0.0345612
86 *2:93 *770:9 0.000279926
87 *2:99 *848:io_in[16] 0.000133569
88 *2:99 *38:125 0
89 *2:121 *848:io_in[10] 0.00360811
90 *2:121 *6:65 0.000710702
91 *2:121 *606:6 0.0068587
92 *2:121 *674:13 0.00686751
93 *2:125 *3:65 0.035679
94 *2:125 *7:63 0
95 *2:125 *8:51 7.4977e-05
96 *2:125 *473:13 0.00185937
97 *2:133 *3:73 0.000792642
98 *2:133 *473:13 0.000104321
99 *2:133 *605:14 2.46957e-05
100 *2:135 *3:75 0.0401135
101 *2:135 *38:145 0.000640138
102 *2:135 *450:138 0.000850906
103 *2:152 *3:92 0.0216449
104 *2:152 *37:50 0.0147431
105 *2:156 *34:54 0.106592
106 *2:156 *37:52 0.107867
107 *2:156 *396:29 4.95599e-05
108 *2:156 *668:13 0.00029168
109 *2:172 *3:73 6.39606e-05
110 *2:172 *3:112 0.00337666
111 *2:172 *34:33 0.000116384
112 *2:174 *636:9 0.0467494
113 *2:174 *655:13 0.00408665
114 *2:174 *778:9 0.00566344
115 *2:174 *786:9 0.0053875
116 *2:182 *15:71 0.000931111
117 *2:182 *16:47 0.0135244
118 *2:182 *38:192 0
119 *2:182 *775:22 0.0135336
120 *2:186 *29:54 0.00100947
121 *2:186 *647:17 0
122 *2:196 *9:35 0.000429444
123 *2:196 *11:53 0
124 *2:196 *29:54 0.0320198
125 *2:196 *460:32 0.00198123
126 *2:196 *647:17 0
127 *2:196 *662:32 0.000107364
*RES
1 io_in[10] *2:5 36.036 
2 *2:5 *2:9 7.384 
3 *2:9 *2:11 644.384 
4 *2:11 *2:19 29.8 
5 *2:19 *2:21 73.32 
6 *2:21 *2:25 6.06 
7 *2:25 *2:29 41.288 
8 *2:29 *2:31 71.552 
9 *2:31 *845:io_in[5] 9.544 
10 *2:25 *2:41 4.5 
11 *2:41 *2:43 160.264 
12 *2:43 *846:io_in[4] 29.852 
13 *2:43 *2:59 4.5 
14 *2:59 *2:61 258.648 
15 *2:61 *838:io_in_1[5] 9.544 
16 *2:19 *847:io_in[5] 9.544 
17 *2:5 *2:79 4.5 
18 *2:79 *2:81 444.808 
19 *2:81 *2:83 4.5 
20 *2:83 *2:85 65.832 
21 *2:85 *2:91 12.016 
22 *2:91 *2:93 98.28 
23 *2:93 *2:99 24.912 
24 *2:99 *848:io_in[5] 40.224 
25 *848:io_in[5] *2:121 40.098 
26 *2:121 *2:125 36.9991 
27 *2:125 *2:133 12.302 
28 *2:133 *2:135 115.128 
29 *2:135 *2:139 7.516 
30 *2:139 *849:io_in_1[5] 0.416 
31 *2:139 *2:150 4.5 
32 *2:150 *2:152 59.8 
33 *2:152 *2:154 4.5 
34 *2:154 *2:156 273.208 
35 *2:156 *844:io_in[5] 46.18 
36 *2:125 *2:172 32.918 
37 *2:172 *2:174 118.04 
38 *2:174 *2:182 46.856 
39 *2:182 *2:186 7.1 
40 *2:186 *842:io_in[5] 24.728 
41 *2:186 *2:196 82.472 
42 *2:196 *850:io_in[5] 8.92 
*END

*D_NET *3 1.30485
*CONN
*P io_in[11] I
*I *847:io_in[6] I *D wrapped_pdp11
*I *838:io_in_1[6] I *D wrapped_ay8913
*I *845:clk I *D tholin_avalonsemi_tbb1143
*I *850:io_in[6] I *D wrapped_tholin_riscv
*I *842:io_in[6] I *D wrapped_mc14500
*I *844:io_in[6] I *D wrapped_sid
*I *849:io_in_1[6] I *D wrapped_sn76489
*I *848:io_in[6] I *D wrapped_qcpu
*CAP
1 io_in[11] 0.00207524
2 *847:io_in[6] 0.00123204
3 *838:io_in_1[6] 0.00559315
4 *845:clk 0.00198969
5 *850:io_in[6] 0.00109383
6 *842:io_in[6] 0.00387967
7 *844:io_in[6] 0.00324432
8 *849:io_in_1[6] 0.000507163
9 *848:io_in[6] 0.00470431
10 *3:188 0.00559315
11 *3:186 0.0110791
12 *3:184 0.0110791
13 *3:182 0.01054
14 *3:180 0.0107946
15 *3:166 0.0123404
16 *3:164 0.0106054
17 *3:162 0.0059363
18 *3:160 0.00906721
19 *3:156 0.00465025
20 *3:152 0.018085
21 *3:150 0.0186765
22 *3:144 0.0181002
23 *3:142 0.0172214
24 *3:132 0.00154811
25 *3:130 0.000454282
26 *3:122 0.00533107
27 *3:118 0.00496924
28 *3:114 0.00611811
29 *3:112 0.00621707
30 *3:96 0.028162
31 *3:94 0.0249177
32 *3:92 0.00465135
33 *3:90 0.00474464
34 *3:75 0.00239244
35 *3:73 0.00233472
36 *3:65 0.0042124
37 *3:59 0.00291455
38 *3:29 0.0056345
39 *3:23 0.00638271
40 *3:21 0.00277741
41 *3:19 0.0381496
42 *3:17 0.04069
43 *3:9 0.00974567
44 *3:7 0.0092805
45 *842:io_in[6] *850:custom_settings[0] 0.000143643
46 *844:io_in[6] *31:9 0