*SPEF "ieee 1481-1999"
*DESIGN "user_project_wrapper"
*DATE "11:11:11 Fri 11 11, 1111"
*VENDOR "OpenRCX"
*PROGRAM "Parallel Extraction"
*VERSION "1.0"
*DESIGN_FLOW "NAME_SCOPE LOCAL" "PIN_CAP NONE"
*DIVIDER /
*DELIMITER :
*BUS_DELIMITER []
*T_UNIT 1 NS
*C_UNIT 1 PF
*R_UNIT 1 OHM
*L_UNIT 1 HENRY

*NAME_MAP
*1 io_in[0]
*2 io_in[10]
*3 io_in[11]
*4 io_in[12]
*5 io_in[13]
*6 io_in[14]
*7 io_in[15]
*8 io_in[16]
*9 io_in[17]
*10 io_in[18]
*11 io_in[19]
*12 io_in[1]
*13 io_in[20]
*14 io_in[21]
*15 io_in[22]
*16 io_in[23]
*17 io_in[24]
*18 io_in[25]
*19 io_in[26]
*20 io_in[27]
*21 io_in[28]
*22 io_in[29]
*23 io_in[2]
*24 io_in[30]
*25 io_in[31]
*26 io_in[32]
*27 io_in[33]
*28 io_in[34]
*29 io_in[35]
*30 io_in[36]
*31 io_in[37]
*32 io_in[3]
*33 io_in[4]
*34 io_in[5]
*35 io_in[6]
*36 io_in[7]
*37 io_in[8]
*38 io_in[9]
*39 io_oeb[0]
*40 io_oeb[10]
*41 io_oeb[11]
*42 io_oeb[12]
*43 io_oeb[13]
*44 io_oeb[14]
*45 io_oeb[15]
*46 io_oeb[16]
*47 io_oeb[17]
*48 io_oeb[18]
*49 io_oeb[19]
*50 io_oeb[1]
*51 io_oeb[20]
*52 io_oeb[21]
*53 io_oeb[22]
*54 io_oeb[23]
*55 io_oeb[24]
*56 io_oeb[25]
*57 io_oeb[26]
*58 io_oeb[27]
*59 io_oeb[28]
*60 io_oeb[29]
*61 io_oeb[2]
*62 io_oeb[30]
*63 io_oeb[31]
*64 io_oeb[32]
*65 io_oeb[33]
*66 io_oeb[34]
*67 io_oeb[35]
*68 io_oeb[36]
*69 io_oeb[37]
*70 io_oeb[3]
*71 io_oeb[4]
*72 io_oeb[5]
*73 io_oeb[6]
*74 io_oeb[7]
*75 io_oeb[8]
*76 io_oeb[9]
*77 io_out[0]
*78 io_out[10]
*79 io_out[11]
*80 io_out[12]
*81 io_out[13]
*82 io_out[14]
*83 io_out[15]
*84 io_out[16]
*85 io_out[17]
*86 io_out[18]
*87 io_out[19]
*88 io_out[1]
*89 io_out[20]
*90 io_out[21]
*91 io_out[22]
*92 io_out[23]
*93 io_out[24]
*94 io_out[25]
*95 io_out[26]
*96 io_out[27]
*97 io_out[28]
*98 io_out[29]
*99 io_out[2]
*100 io_out[30]
*101 io_out[31]
*102 io_out[32]
*103 io_out[33]
*104 io_out[34]
*105 io_out[35]
*106 io_out[36]
*107 io_out[37]
*108 io_out[3]
*109 io_out[4]
*110 io_out[5]
*111 io_out[6]
*112 io_out[7]
*113 io_out[8]
*114 io_out[9]
*115 la_data_in[0]
*116 la_data_in[10]
*117 la_data_in[11]
*118 la_data_in[12]
*119 la_data_in[13]
*120 la_data_in[14]
*121 la_data_in[15]
*122 la_data_in[16]
*123 la_data_in[17]
*124 la_data_in[18]
*125 la_data_in[19]
*126 la_data_in[1]
*127 la_data_in[20]
*128 la_data_in[21]
*129 la_data_in[22]
*130 la_data_in[23]
*131 la_data_in[24]
*132 la_data_in[25]
*133 la_data_in[26]
*134 la_data_in[27]
*135 la_data_in[28]
*136 la_data_in[29]
*137 la_data_in[2]
*138 la_data_in[30]
*139 la_data_in[31]
*140 la_data_in[32]
*141 la_data_in[33]
*142 la_data_in[34]
*143 la_data_in[35]
*144 la_data_in[36]
*145 la_data_in[37]
*146 la_data_in[38]
*147 la_data_in[39]
*148 la_data_in[3]
*149 la_data_in[40]
*150 la_data_in[41]
*151 la_data_in[42]
*152 la_data_in[43]
*153 la_data_in[44]
*154 la_data_in[45]
*155 la_data_in[46]
*156 la_data_in[47]
*157 la_data_in[48]
*158 la_data_in[49]
*159 la_data_in[4]
*160 la_data_in[50]
*161 la_data_in[51]
*162 la_data_in[52]
*163 la_data_in[53]
*164 la_data_in[54]
*165 la_data_in[55]
*166 la_data_in[56]
*167 la_data_in[57]
*168 la_data_in[58]
*169 la_data_in[59]
*170 la_data_in[5]
*171 la_data_in[60]
*172 la_data_in[61]
*173 la_data_in[62]
*174 la_data_in[63]
*175 la_data_in[6]
*176 la_data_in[7]
*177 la_data_in[8]
*178 la_data_in[9]
*179 la_data_out[0]
*180 la_data_out[10]
*181 la_data_out[11]
*182 la_data_out[12]
*183 la_data_out[13]
*184 la_data_out[14]
*185 la_data_out[15]
*186 la_data_out[16]
*187 la_data_out[17]
*188 la_data_out[18]
*189 la_data_out[19]
*190 la_data_out[1]
*191 la_data_out[20]
*192 la_data_out[21]
*193 la_data_out[22]
*194 la_data_out[23]
*195 la_data_out[24]
*196 la_data_out[25]
*197 la_data_out[26]
*198 la_data_out[27]
*199 la_data_out[28]
*200 la_data_out[29]
*201 la_data_out[2]
*202 la_data_out[30]
*203 la_data_out[31]
*204 la_data_out[32]
*205 la_data_out[33]
*206 la_data_out[34]
*207 la_data_out[35]
*208 la_data_out[36]
*209 la_data_out[37]
*210 la_data_out[38]
*211 la_data_out[39]
*212 la_data_out[3]
*213 la_data_out[40]
*214 la_data_out[41]
*215 la_data_out[42]
*216 la_data_out[43]
*217 la_data_out[44]
*218 la_data_out[45]
*219 la_data_out[46]
*220 la_data_out[47]
*221 la_data_out[48]
*222 la_data_out[49]
*223 la_data_out[4]
*224 la_data_out[50]
*225 la_data_out[51]
*226 la_data_out[52]
*227 la_data_out[53]
*228 la_data_out[54]
*229 la_data_out[55]
*230 la_data_out[56]
*231 la_data_out[57]
*232 la_data_out[58]
*233 la_data_out[59]
*234 la_data_out[5]
*235 la_data_out[60]
*236 la_data_out[61]
*237 la_data_out[62]
*238 la_data_out[63]
*239 la_data_out[6]
*240 la_data_out[7]
*241 la_data_out[8]
*242 la_data_out[9]
*243 la_oenb[0]
*244 la_oenb[10]
*245 la_oenb[11]
*246 la_oenb[12]
*247 la_oenb[13]
*248 la_oenb[14]
*249 la_oenb[15]
*250 la_oenb[16]
*251 la_oenb[17]
*252 la_oenb[18]
*253 la_oenb[19]
*254 la_oenb[1]
*255 la_oenb[20]
*256 la_oenb[21]
*257 la_oenb[22]
*258 la_oenb[23]
*259 la_oenb[24]
*260 la_oenb[25]
*261 la_oenb[26]
*262 la_oenb[27]
*263 la_oenb[28]
*264 la_oenb[29]
*265 la_oenb[2]
*266 la_oenb[30]
*267 la_oenb[31]
*268 la_oenb[32]
*269 la_oenb[33]
*270 la_oenb[34]
*271 la_oenb[35]
*272 la_oenb[36]
*273 la_oenb[37]
*274 la_oenb[38]
*275 la_oenb[39]
*276 la_oenb[3]
*277 la_oenb[40]
*278 la_oenb[41]
*279 la_oenb[42]
*280 la_oenb[43]
*281 la_oenb[44]
*282 la_oenb[45]
*283 la_oenb[46]
*284 la_oenb[47]
*285 la_oenb[48]
*286 la_oenb[49]
*287 la_oenb[4]
*288 la_oenb[50]
*289 la_oenb[51]
*290 la_oenb[52]
*291 la_oenb[53]
*292 la_oenb[54]
*293 la_oenb[55]
*294 la_oenb[56]
*295 la_oenb[57]
*296 la_oenb[58]
*297 la_oenb[59]
*298 la_oenb[5]
*299 la_oenb[60]
*300 la_oenb[61]
*301 la_oenb[62]
*302 la_oenb[63]
*303 la_oenb[6]
*304 la_oenb[7]
*305 la_oenb[8]
*306 la_oenb[9]
*307 user_clock2
*308 user_irq[0]
*309 user_irq[1]
*310 user_irq[2]
*313 wb_clk_i
*314 wb_rst_i
*315 wbs_ack_o
*316 wbs_adr_i[0]
*317 wbs_adr_i[10]
*318 wbs_adr_i[11]
*319 wbs_adr_i[12]
*320 wbs_adr_i[13]
*321 wbs_adr_i[14]
*322 wbs_adr_i[15]
*323 wbs_adr_i[16]
*324 wbs_adr_i[17]
*325 wbs_adr_i[18]
*326 wbs_adr_i[19]
*327 wbs_adr_i[1]
*328 wbs_adr_i[20]
*329 wbs_adr_i[21]
*330 wbs_adr_i[22]
*331 wbs_adr_i[23]
*332 wbs_adr_i[24]
*333 wbs_adr_i[25]
*334 wbs_adr_i[26]
*335 wbs_adr_i[27]
*336 wbs_adr_i[28]
*337 wbs_adr_i[29]
*338 wbs_adr_i[2]
*339 wbs_adr_i[30]
*340 wbs_adr_i[31]
*341 wbs_adr_i[3]
*342 wbs_adr_i[4]
*343 wbs_adr_i[5]
*344 wbs_adr_i[6]
*345 wbs_adr_i[7]
*346 wbs_adr_i[8]
*347 wbs_adr_i[9]
*348 wbs_cyc_i
*349 wbs_dat_i[0]
*350 wbs_dat_i[10]
*351 wbs_dat_i[11]
*352 wbs_dat_i[12]
*353 wbs_dat_i[13]
*354 wbs_dat_i[14]
*355 wbs_dat_i[15]
*356 wbs_dat_i[16]
*357 wbs_dat_i[17]
*358 wbs_dat_i[18]
*359 wbs_dat_i[19]
*360 wbs_dat_i[1]
*361 wbs_dat_i[20]
*362 wbs_dat_i[21]
*363 wbs_dat_i[22]
*364 wbs_dat_i[23]
*365 wbs_dat_i[24]
*366 wbs_dat_i[25]
*367 wbs_dat_i[26]
*368 wbs_dat_i[27]
*369 wbs_dat_i[28]
*370 wbs_dat_i[29]
*371 wbs_dat_i[2]
*372 wbs_dat_i[30]
*373 wbs_dat_i[31]
*374 wbs_dat_i[3]
*375 wbs_dat_i[4]
*376 wbs_dat_i[5]
*377 wbs_dat_i[6]
*378 wbs_dat_i[7]
*379 wbs_dat_i[8]
*380 wbs_dat_i[9]
*381 wbs_dat_o[0]
*382 wbs_dat_o[10]
*383 wbs_dat_o[11]
*384 wbs_dat_o[12]
*385 wbs_dat_o[13]
*386 wbs_dat_o[14]
*387 wbs_dat_o[15]
*388 wbs_dat_o[16]
*389 wbs_dat_o[17]
*390 wbs_dat_o[18]
*391 wbs_dat_o[19]
*392 wbs_dat_o[1]
*393 wbs_dat_o[20]
*394 wbs_dat_o[21]
*395 wbs_dat_o[22]
*396 wbs_dat_o[23]
*397 wbs_dat_o[24]
*398 wbs_dat_o[25]
*399 wbs_dat_o[26]
*400 wbs_dat_o[27]
*401 wbs_dat_o[28]
*402 wbs_dat_o[29]
*403 wbs_dat_o[2]
*404 wbs_dat_o[30]
*405 wbs_dat_o[31]
*406 wbs_dat_o[3]
*407 wbs_dat_o[4]
*408 wbs_dat_o[5]
*409 wbs_dat_o[6]
*410 wbs_dat_o[7]
*411 wbs_dat_o[8]
*412 wbs_dat_o[9]
*413 wbs_sel_i[0]
*414 wbs_sel_i[1]
*415 wbs_sel_i[2]
*416 wbs_sel_i[3]
*417 wbs_stb_i
*418 wbs_we_i
*419 blinker_do\[0\]
*420 blinker_do\[1\]
*421 blinker_do\[2\]
*422 custom_settings\[0\]
*423 custom_settings\[10\]
*424 custom_settings\[11\]
*425 custom_settings\[12\]
*426 custom_settings\[13\]
*427 custom_settings\[14\]
*428 custom_settings\[15\]
*429 custom_settings\[16\]
*430 custom_settings\[17\]
*431 custom_settings\[18\]
*432 custom_settings\[19\]
*433 custom_settings\[1\]
*434 custom_settings\[20\]
*435 custom_settings\[21\]
*436 custom_settings\[22\]
*437 custom_settings\[23\]
*438 custom_settings\[24\]
*439 custom_settings\[25\]
*440 custom_settings\[26\]
*441 custom_settings\[27\]
*442 custom_settings\[28\]
*443 custom_settings\[29\]
*444 custom_settings\[2\]
*445 custom_settings\[30\]
*446 custom_settings\[31\]
*447 custom_settings\[3\]
*448 custom_settings\[4\]
*449 custom_settings\[5\]
*450 custom_settings\[6\]
*451 custom_settings\[7\]
*452 custom_settings\[8\]
*453 custom_settings\[9\]
*454 qcpu_do\[0\]
*455 qcpu_do\[10\]
*456 qcpu_do\[11\]
*457 qcpu_do\[12\]
*458 qcpu_do\[13\]
*459 qcpu_do\[14\]
*460 qcpu_do\[15\]
*461 qcpu_do\[16\]
*462 qcpu_do\[17\]
*463 qcpu_do\[18\]
*464 qcpu_do\[19\]
*465 qcpu_do\[1\]
*466 qcpu_do\[20\]
*467 qcpu_do\[21\]
*468 qcpu_do\[22\]
*469 qcpu_do\[23\]
*470 qcpu_do\[24\]
*471 qcpu_do\[25\]
*472 qcpu_do\[26\]
*473 qcpu_do\[27\]
*474 qcpu_do\[28\]
*475 qcpu_do\[29\]
*476 qcpu_do\[2\]
*477 qcpu_do\[30\]
*478 qcpu_do\[31\]
*479 qcpu_do\[32\]
*480 qcpu_do\[3\]
*481 qcpu_do\[4\]
*482 qcpu_do\[5\]
*483 qcpu_do\[6\]
*484 qcpu_do\[7\]
*485 qcpu_do\[8\]
*486 qcpu_do\[9\]
*487 qcpu_oeb\[0\]
*488 qcpu_oeb\[10\]
*489 qcpu_oeb\[11\]
*490 qcpu_oeb\[12\]
*491 qcpu_oeb\[13\]
*492 qcpu_oeb\[14\]
*493 qcpu_oeb\[15\]
*494 qcpu_oeb\[16\]
*495 qcpu_oeb\[17\]
*496 qcpu_oeb\[18\]
*497 qcpu_oeb\[19\]
*498 qcpu_oeb\[1\]
*499 qcpu_oeb\[20\]
*500 qcpu_oeb\[21\]
*501 qcpu_oeb\[22\]
*502 qcpu_oeb\[23\]
*503 qcpu_oeb\[24\]
*504 qcpu_oeb\[25\]
*505 qcpu_oeb\[26\]
*506 qcpu_oeb\[27\]
*507 qcpu_oeb\[28\]
*508 qcpu_oeb\[29\]
*509 qcpu_oeb\[2\]
*510 qcpu_oeb\[30\]
*511 qcpu_oeb\[31\]
*512 qcpu_oeb\[32\]
*513 qcpu_oeb\[3\]
*514 qcpu_oeb\[4\]
*515 qcpu_oeb\[5\]
*516 qcpu_oeb\[6\]
*517 qcpu_oeb\[7\]
*518 qcpu_oeb\[8\]
*519 qcpu_oeb\[9\]
*520 qcpu_sram_addr\[0\]
*521 qcpu_sram_addr\[1\]
*522 qcpu_sram_addr\[2\]
*523 qcpu_sram_addr\[3\]
*524 qcpu_sram_addr\[4\]
*525 qcpu_sram_addr\[5\]
*526 qcpu_sram_gwe
*527 qcpu_sram_in\[0\]
*528 qcpu_sram_in\[1\]
*529 qcpu_sram_in\[2\]
*530 qcpu_sram_in\[3\]
*531 qcpu_sram_in\[4\]
*532 qcpu_sram_in\[5\]
*533 qcpu_sram_in\[6\]
*534 qcpu_sram_in\[7\]
*535 qcpu_sram_out\[0\]
*536 qcpu_sram_out\[1\]
*537 qcpu_sram_out\[2\]
*538 qcpu_sram_out\[3\]
*539 qcpu_sram_out\[4\]
*540 qcpu_sram_out\[5\]
*541 qcpu_sram_out\[6\]
*542 qcpu_sram_out\[7\]
*543 rst_blinker
*544 rst_qcpu
*545 rst_sid
*546 rst_sn76489
*547 sid_do\[0\]
*548 sid_do\[10\]
*549 sid_do\[11\]
*550 sid_do\[12\]
*551 sid_do\[13\]
*552 sid_do\[14\]
*553 sid_do\[15\]
*554 sid_do\[16\]
*555 sid_do\[17\]
*556 sid_do\[18\]
*557 sid_do\[19\]
*558 sid_do\[1\]
*559 sid_do\[20\]
*560 sid_do\[2\]
*561 sid_do\[3\]
*562 sid_do\[4\]
*563 sid_do\[5\]
*564 sid_do\[6\]
*565 sid_do\[7\]
*566 sid_do\[8\]
*567 sid_do\[9\]
*568 sid_oeb
*569 sn76489_do\[0\]
*570 sn76489_do\[10\]
*571 sn76489_do\[11\]
*572 sn76489_do\[12\]
*573 sn76489_do\[13\]
*574 sn76489_do\[14\]
*575 sn76489_do\[15\]
*576 sn76489_do\[16\]
*577 sn76489_do\[17\]
*578 sn76489_do\[18\]
*579 sn76489_do\[19\]
*580 sn76489_do\[1\]
*581 sn76489_do\[20\]
*582 sn76489_do\[21\]
*583 sn76489_do\[22\]
*584 sn76489_do\[23\]
*585 sn76489_do\[24\]
*586 sn76489_do\[25\]
*587 sn76489_do\[26\]
*588 sn76489_do\[27\]
*589 sn76489_do\[2\]
*590 sn76489_do\[3\]
*591 sn76489_do\[4\]
*592 sn76489_do\[5\]
*593 sn76489_do\[6\]
*594 sn76489_do\[7\]
*595 sn76489_do\[8\]
*596 sn76489_do\[9\]
*597 avali_logo
*598 blinker
*599 multiplexer
*600 sid
*601 wrapped_qcpu
*602 wrapped_sn76489

*PORTS
io_in[0] I
io_in[10] I
io_in[11] I
io_in[12] I
io_in[13] I
io_in[14] I
io_in[15] I
io_in[16] I
io_in[17] I
io_in[18] I
io_in[19] I
io_in[1] I
io_in[20] I
io_in[21] I
io_in[22] I
io_in[23] I
io_in[24] I
io_in[25] I
io_in[26] I
io_in[27] I
io_in[28] I
io_in[29] I
io_in[2] I
io_in[30] I
io_in[31] I
io_in[32] I
io_in[33] I
io_in[34] I
io_in[35] I
io_in[36] I
io_in[37] I
io_in[3] I
io_in[4] I
io_in[5] I
io_in[6] I
io_in[7] I
io_in[8] I
io_in[9] I
io_oeb[0] O
io_oeb[10] O
io_oeb[11] O
io_oeb[12] O
io_oeb[13] O
io_oeb[14] O
io_oeb[15] O
io_oeb[16] O
io_oeb[17] O
io_oeb[18] O
io_oeb[19] O
io_oeb[1] O
io_oeb[20] O
io_oeb[21] O
io_oeb[22] O
io_oeb[23] O
io_oeb[24] O
io_oeb[25] O
io_oeb[26] O
io_oeb[27] O
io_oeb[28] O
io_oeb[29] O
io_oeb[2] O
io_oeb[30] O
io_oeb[31] O
io_oeb[32] O
io_oeb[33] O
io_oeb[34] O
io_oeb[35] O
io_oeb[36] O
io_oeb[37] O
io_oeb[3] O
io_oeb[4] O
io_oeb[5] O
io_oeb[6] O
io_oeb[7] O
io_oeb[8] O
io_oeb[9] O
io_out[0] O
io_out[10] O
io_out[11] O
io_out[12] O
io_out[13] O
io_out[14] O
io_out[15] O
io_out[16] O
io_out[17] O
io_out[18] O
io_out[19] O
io_out[1] O
io_out[20] O
io_out[21] O
io_out[22] O
io_out[23] O
io_out[24] O
io_out[25] O
io_out[26] O
io_out[27] O
io_out[28] O
io_out[29] O
io_out[2] O
io_out[30] O
io_out[31] O
io_out[32] O
io_out[33] O
io_out[34] O
io_out[35] O
io_out[36] O
io_out[37] O
io_out[3] O
io_out[4] O
io_out[5] O
io_out[6] O
io_out[7] O
io_out[8] O
io_out[9] O
la_data_in[0] I
la_data_in[10] I
la_data_in[11] I
la_data_in[12] I
la_data_in[13] I
la_data_in[14] I
la_data_in[15] I
la_data_in[16] I
la_data_in[17] I
la_data_in[18] I
la_data_in[19] I
la_data_in[1] I
la_data_in[20] I
la_data_in[21] I
la_data_in[22] I
la_data_in[23] I
la_data_in[24] I
la_data_in[25] I
la_data_in[26] I
la_data_in[27] I
la_data_in[28] I
la_data_in[29] I
la_data_in[2] I
la_data_in[30] I
la_data_in[31] I
la_data_in[32] I
la_data_in[33] I
la_data_in[34] I
la_data_in[35] I
la_data_in[36] I
la_data_in[37] I
la_data_in[38] I
la_data_in[39] I
la_data_in[3] I
la_data_in[40] I
la_data_in[41] I
la_data_in[42] I
la_data_in[43] I
la_data_in[44] I
la_data_in[45] I
la_data_in[46] I
la_data_in[47] I
la_data_in[48] I
la_data_in[49] I
la_data_in[4] I
la_data_in[50] I
la_data_in[51] I
la_data_in[52] I
la_data_in[53] I
la_data_in[54] I
la_data_in[55] I
la_data_in[56] I
la_data_in[57] I
la_data_in[58] I
la_data_in[59] I
la_data_in[5] I
la_data_in[60] I
la_data_in[61] I
la_data_in[62] I
la_data_in[63] I
la_data_in[6] I
la_data_in[7] I
la_data_in[8] I
la_data_in[9] I
la_data_out[0] O
la_data_out[10] O
la_data_out[11] O
la_data_out[12] O
la_data_out[13] O
la_data_out[14] O
la_data_out[15] O
la_data_out[16] O
la_data_out[17] O
la_data_out[18] O
la_data_out[19] O
la_data_out[1] O
la_data_out[20] O
la_data_out[21] O
la_data_out[22] O
la_data_out[23] O
la_data_out[24] O
la_data_out[25] O
la_data_out[26] O
la_data_out[27] O
la_data_out[28] O
la_data_out[29] O
la_data_out[2] O
la_data_out[30] O
la_data_out[31] O
la_data_out[32] O
la_data_out[33] O
la_data_out[34] O
la_data_out[35] O
la_data_out[36] O
la_data_out[37] O
la_data_out[38] O
la_data_out[39] O
la_data_out[3] O
la_data_out[40] O
la_data_out[41] O
la_data_out[42] O
la_data_out[43] O
la_data_out[44] O
la_data_out[45] O
la_data_out[46] O
la_data_out[47] O
la_data_out[48] O
la_data_out[49] O
la_data_out[4] O
la_data_out[50] O
la_data_out[51] O
la_data_out[52] O
la_data_out[53] O
la_data_out[54] O
la_data_out[55] O
la_data_out[56] O
la_data_out[57] O
la_data_out[58] O
la_data_out[59] O
la_data_out[5] O
la_data_out[60] O
la_data_out[61] O
la_data_out[62] O
la_data_out[63] O
la_data_out[6] O
la_data_out[7] O
la_data_out[8] O
la_data_out[9] O
la_oenb[0] I
la_oenb[10] I
la_oenb[11] I
la_oenb[12] I
la_oenb[13] I
la_oenb[14] I
la_oenb[15] I
la_oenb[16] I
la_oenb[17] I
la_oenb[18] I
la_oenb[19] I
la_oenb[1] I
la_oenb[20] I
la_oenb[21] I
la_oenb[22] I
la_oenb[23] I
la_oenb[24] I
la_oenb[25] I
la_oenb[26] I
la_oenb[27] I
la_oenb[28] I
la_oenb[29] I
la_oenb[2] I
la_oenb[30] I
la_oenb[31] I
la_oenb[32] I
la_oenb[33] I
la_oenb[34] I
la_oenb[35] I
la_oenb[36] I
la_oenb[37] I
la_oenb[38] I
la_oenb[39] I
la_oenb[3] I
la_oenb[40] I
la_oenb[41] I
la_oenb[42] I
la_oenb[43] I
la_oenb[44] I
la_oenb[45] I
la_oenb[46] I
la_oenb[47] I
la_oenb[48] I
la_oenb[49] I
la_oenb[4] I
la_oenb[50] I
la_oenb[51] I
la_oenb[52] I
la_oenb[53] I
la_oenb[54] I
la_oenb[55] I
la_oenb[56] I
la_oenb[57] I
la_oenb[58] I
la_oenb[59] I
la_oenb[5] I
la_oenb[60] I
la_oenb[61] I
la_oenb[62] I
la_oenb[63] I
la_oenb[6] I
la_oenb[7] I
la_oenb[8] I
la_oenb[9] I
user_clock2 I
user_irq[0] O
user_irq[1] O
user_irq[2] O
wb_clk_i I
wb_rst_i I
wbs_ack_o O
wbs_adr_i[0] I
wbs_adr_i[10] I
wbs_adr_i[11] I
wbs_adr_i[12] I
wbs_adr_i[13] I
wbs_adr_i[14] I
wbs_adr_i[15] I
wbs_adr_i[16] I
wbs_adr_i[17] I
wbs_adr_i[18] I
wbs_adr_i[19] I
wbs_adr_i[1] I
wbs_adr_i[20] I
wbs_adr_i[21] I
wbs_adr_i[22] I
wbs_adr_i[23] I
wbs_adr_i[24] I
wbs_adr_i[25] I
wbs_adr_i[26] I
wbs_adr_i[27] I
wbs_adr_i[28] I
wbs_adr_i[29] I
wbs_adr_i[2] I
wbs_adr_i[30] I
wbs_adr_i[31] I
wbs_adr_i[3] I
wbs_adr_i[4] I
wbs_adr_i[5] I
wbs_adr_i[6] I
wbs_adr_i[7] I
wbs_adr_i[8] I
wbs_adr_i[9] I
wbs_cyc_i I
wbs_dat_i[0] I
wbs_dat_i[10] I
wbs_dat_i[11] I
wbs_dat_i[12] I
wbs_dat_i[13] I
wbs_dat_i[14] I
wbs_dat_i[15] I
wbs_dat_i[16] I
wbs_dat_i[17] I
wbs_dat_i[18] I
wbs_dat_i[19] I
wbs_dat_i[1] I
wbs_dat_i[20] I
wbs_dat_i[21] I
wbs_dat_i[22] I
wbs_dat_i[23] I
wbs_dat_i[24] I
wbs_dat_i[25] I
wbs_dat_i[26] I
wbs_dat_i[27] I
wbs_dat_i[28] I
wbs_dat_i[29] I
wbs_dat_i[2] I
wbs_dat_i[30] I
wbs_dat_i[31] I
wbs_dat_i[3] I
wbs_dat_i[4] I
wbs_dat_i[5] I
wbs_dat_i[6] I
wbs_dat_i[7] I
wbs_dat_i[8] I
wbs_dat_i[9] I
wbs_dat_o[0] O
wbs_dat_o[10] O
wbs_dat_o[11] O
wbs_dat_o[12] O
wbs_dat_o[13] O
wbs_dat_o[14] O
wbs_dat_o[15] O
wbs_dat_o[16] O
wbs_dat_o[17] O
wbs_dat_o[18] O
wbs_dat_o[19] O
wbs_dat_o[1] O
wbs_dat_o[20] O
wbs_dat_o[21] O
wbs_dat_o[22] O
wbs_dat_o[23] O
wbs_dat_o[24] O
wbs_dat_o[25] O
wbs_dat_o[26] O
wbs_dat_o[27] O
wbs_dat_o[28] O
wbs_dat_o[29] O
wbs_dat_o[2] O
wbs_dat_o[30] O
wbs_dat_o[31] O
wbs_dat_o[3] O
wbs_dat_o[4] O
wbs_dat_o[5] O
wbs_dat_o[6] O
wbs_dat_o[7] O
wbs_dat_o[8] O
wbs_dat_o[9] O
wbs_sel_i[0] I
wbs_sel_i[1] I
wbs_sel_i[2] I
wbs_sel_i[3] I
wbs_stb_i I
wbs_we_i I

*D_NET *1 0.336044
*CONN
*P io_in[0] I
*I *599:io_in[0] I *D multiplexer
*CAP
1 io_in[0] 0.00545385
2 *599:io_in[0] 0.000288409
3 *1:13 0.0616052
4 *1:11 0.0613168
5 *1:9 0.0586731
6 *1:7 0.0586731
7 *1:5 0.00545385
8 *599:io_in[0] *27:25 0.000130953
9 *1:9 *496:9 0
10 *1:9 *499:9 0.0017682
11 *1:9 *500:9 0
12 *1:9 *504:9 0
13 *1:9 *505:9 0
14 *1:9 *508:9 0.0346928
15 *1:13 *599:io_in[14] 0
16 *1:13 *8:57 0
17 *1:13 *18:35 0.00212062
18 *1:13 *21:13 0.00217999
19 *1:13 *23:13 0.016425
20 *1:13 *25:57 0.00276077
21 *1:13 *27:29 0.00200827
22 *1:13 *35:19 0.00716904
23 *1:13 *37:81 0.00714334
24 *1:13 *88:9 0.00818107
25 *1:13 *107:12 0
*RES
1 io_in[0] *1:5 47.06 
2 *1:5 *1:7 4.5 
3 *1:7 *1:9 649.952 
4 *1:9 *1:11 4.5 
5 *1:11 *1:13 254.87 
6 *1:13 *599:io_in[0] 15.7917 
*END

*D_NET *2 0.68853
*CONN
*P io_in[10] I
*I *601:io_in[5] I *D wrapped_qcpu
*I *600:io_in[5] I *D wrapped_sid
*I *602:io_in_1[5] I *D wrapped_sn76489
*I *599:io_in[10] I *D multiplexer
*CAP
1 io_in[10] 0.0261465
2 *601:io_in[5] 0.00056116
3 *600:io_in[5] 0.00102958
4 *602:io_in_1[5] 0.000129944
5 *599:io_in[10] 0.000809608
6 *2:79 0.00405608
7 *2:77 0.00370425
8 *2:59 0.00105878
9 *2:57 0.000381034
10 *2:55 0.00424757
11 *2:53 0.00424757
12 *2:43 0.00520508
13 *2:39 0.0125198
14 *2:37 0.00744463
15 *2:35 0.000888914
16 *2:33 0.00145007
17 *2:31 0.0352135
18 *2:29 0.0352135
19 *2:19 0.0252668
20 *2:17 0.0282844
21 *2:13 0.00402932
22 *2:9 0.0105379
23 *2:7 0.0103358
24 *2:5 0.0261465
25 *600:io_in[5] *393:17 0.0109222
26 *600:io_in[5] *396:25 0.010913
27 *601:io_in[5] *601:io_in[6] 0
28 *601:io_in[5] *3:37 0.000692314
29 *601:io_in[5] *4:35 0.000659361
30 *2:9 *3:79 0
31 *2:13 *4:75 0
32 *2:17 *4:75 0
33 *2:19 *599:blinker_do[0] 0.00485824
34 *2:19 *599:blinker_do[2] 0.000860488
35 *2:19 *599:io_in[14] 0.000289801
36 *2:19 *599:io_in[15] 0.000109508
37 *2:19 *599:io_in[28] 0
38 *2:19 *4:75 0.0132097
39 *2:19 *8:57 0.0151325
40 *2:19 *9:13 0.000266559
41 *2:19 *9:57 0.00696271
42 *2:19 *11:27 0.00110628
43 *2:19 *18:35 0.000581574
44 *2:19 *21:13 0
45 *2:19 *30:45 0.0257134
46 *2:19 *112:9 0.027978
47 *2:19 *543:11 0.00786205
48 *2:19 *546:13 7.49136e-05
49 *2:31 *601:io_in[4] 0.00021288
50 *2:31 *38:19 0.0251315
51 *2:35 *3:37 0.0178402
52 *2:35 *4:35 0.0214832
53 *2:39 *88:13 0.0457861
54 *2:55 *3:53 0.0255567
55 *2:59 *601:wb_clk_i 0.039051
56 *2:59 *4:59 0
57 *2:59 *34:31 0.0384564
58 *2:77 *4:59 0
59 *2:77 *34:45 0.00833956
60 *2:77 *313:53 0.00120227
61 *2:77 *313:69 0.00668317
62 *2:79 *3:57 0
63 *2:79 *34:47 0.0595001
64 *2:79 *37:48 0.0221861
*RES
1 io_in[10] *2:5 228.02 
2 *2:5 *2:7 4.5 
3 *2:7 *2:9 84.968 
4 *2:9 *2:13 6.06 
5 *2:13 *2:17 32.136 
6 *2:17 *2:19 356.304 
7 *2:19 *599:io_in[10] 8.92 
8 *2:13 *2:29 4.5 
9 *2:29 *2:31 364.312 
10 *2:31 *2:33 4.5 
11 *2:33 *2:35 54.6 
12 *2:35 *2:37 4.5 
13 *2:37 *2:39 118.04 
14 *2:39 *2:43 46.62 
15 *2:43 *602:io_in_1[5] 0.78 
16 *2:43 *2:53 4.5 
17 *2:53 *2:55 67.496 
18 *2:55 *2:57 4.5 
19 *2:57 *2:59 98.072 
20 *2:59 *2:77 41.4669 
21 *2:77 *2:79 151.944 
22 *2:79 *600:io_in[5] 43.684 
23 *2:33 *601:io_in[5] 9.856 
*END

*D_NET *3 0.831533
*CONN
*P io_in[11] I
*I *599:io_in[11] I *D multiplexer
*I *602:io_in_1[6] I *D wrapped_sn76489
*I *600:io_in[6] I *D wrapped_sid
*I *601:io_in[6] I *D wrapped_qcpu
*CAP
1 io_in[11] 0.00205376
2 *599:io_in[11] 0.00103662
3 *602:io_in_1[6] 7.3471e-05
4 *600:io_in[6] 0.00282225
5 *601:io_in[6] 0.000721063
6 *3:81 0.00277278
7 *3:79 0.00201233
8 *3:57 0.0201142
9 *3:55 0.0172919
10 *3:53 0.00543461
11 *3:51 0.00554652
12 *3:45 0.00541033
13 *3:43 0.00522495
14 *3:41 0.0130557
15 *3:39 0.0130557
16 *3:37 0.00317836
17 *3:35 0.00317836
18 *3:25 0.0463433
19 *3:23 0.046901
20 *3:13 0.0130166
21 *3:11 0.0120141
22 *3:9 0.0180408
23 *3:7 0.0200946
24 *600:io_in[6] *393:17 0.0121354
25 *3:13 *38:13 0.0828179
26 *3:23 *4:17 0.000940656
27 *3:23 *4:19 0.000225638
28 *3:23 *4:75 0
29 *3:23 *5:29 0.000113027
30 *3:37 *4:35 0.000243466
31 *3:45 *601:custom_settings[13] 0.00215442
32 *3:57 *4:59 0.105681
33 *3:57 *34:23 0.000524194
34 *3:57 *34:47 0
35 *3:57 *34:55 2.18184e-05
36 *3:81 *599:io_in[15] 0.000129783
37 *3:81 *4:75 0.153152
38 *3:81 *5:59 0.0170343
39 *3:81 *15:19 0.000284957
40 *3:81 *33:13 0
41 *3:81 *38:89 0.152591
42 *601:io_in[5] *601:io_in[6] 0
43 *601:io_in[5] *3:37 0.000692314
44 *2:9 *3:79 0
45 *2:35 *3:37 0.0178402
46 *2:55 *3:53 0.0255567
47 *2:79 *3:57 0
*RES
1 io_in[11] *3:7 20.36 
2 *3:7 *3:9 150.904 
3 *3:9 *3:11 4.5 
4 *3:11 *3:13 207.688 
5 *3:13 *3:23 24.316 
6 *3:23 *3:25 364.104 
7 *3:25 *601:io_in[6] 4.94 
8 *3:25 *3:35 4.5 
9 *3:35 *3:37 48.568 
10 *3:37 *3:39 4.5 
11 *3:39 *3:41 105.768 
12 *3:41 *3:43 4.5 
13 *3:43 *3:45 51.688 
14 *3:45 *3:51 5.54 
15 *3:51 *3:53 77.48 
16 *3:53 *3:55 4.5 
17 *3:55 *3:57 273 
18 *3:57 *600:io_in[6] 46.388 
19 *3:45 *602:io_in_1[6] 0.676 
20 *3:23 *3:79 6.476 
21 *3:79 *3:81 388.232 
22 *3:81 *599:io_in[11] 10.168 
*END

*D_NET *4 0.802307
*CONN
*P io_in[12] I
*I *599:io_in[12] I *D multiplexer
*I *600:io_in[7] I *D wrapped_sid
*I *602:io_in_1[7] I *D wrapped_sn76489
*I *601:io_in[7] I *D wrapped_qcpu
*CAP
1 io_in[12] 0.0243643
2 *599:io_in[12] 0.00101238
3 *600:io_in[7] 0.0020402
4 *602:io_in_1[7] 0.000651365
5 *601:io_in[7] 0.000559185
6 *4:75 0.0134178
7 *4:73 0.0124054
8 *4:65 0.00416014
9 *4:59 0.0189911
10 *4:57 0.0168711
11 *4:55 0.00666207
12 *4:53 0.00666207
13 *4:43 0.00150504
14 *4:39 0.0122228
15 *4:37 0.0113692
16 *4:35 0.00270829
17 *4:33 0.00270829
18 *4:19 0.0243376
19 *4:17 0.0264837
20 *4:9 0.0285792
21 *4:7 0.0258739
22 *4:5 0.0243643
23 *601:io_in[7] *5:29 0.000242172
24 *4:17 *44:13 0
25 *4:17 *80:9 0
26 *4:19 *5:29 0.140912
27 *4:35 *11:67 0.0363225
28 *4:39 *423:19 0.00746685
29 *4:55 *35:65 0
30 *4:55 *35:80 0.0056123
31 *4:55 *36:70 0.00226406
32 *4:55 *37:44 0.00130689
33 *4:55 *38:48 0.00585768
34 *4:55 *38:56 0.00011869
35 *4:55 *38:58 0.000919018
36 *4:55 *544:14 0.0026287
37 *4:59 *601:wb_clk_i 0
38 *4:59 *34:23 0.000661565
39 *4:59 *34:31 0
40 *4:59 *34:47 0
41 *4:59 *313:53 0
42 *4:59 *313:69 0
43 *4:65 *599:wbs_adr_i[31] 0.00205233
44 *4:65 *599:wbs_dat_i[0] 0.00378513
45 *4:75 *599:blinker_do[2] 0.00131323
46 *4:75 *599:io_in[22] 0.000219354
47 *4:75 *599:io_in[23] 6.85626e-05
48 *4:75 *5:59 0.000346158
49 *4:75 *8:57 0.0135078
50 *4:75 *15:19 0.00406907
51 *4:75 *16:19 0.000210709
52 *4:75 *30:45 0.00256533
53 *4:75 *33:13 0
54 *4:75 *112:9 0.00552869
55 *4:75 *543:11 0.000784116
56 *601:io_in[5] *4:35 0.000659361
57 *2:13 *4:75 0
58 *2:17 *4:75 0
59 *2:19 *4:75 0.0132097
60 *2:35 *4:35 0.0214832
61 *2:59 *4:59 0
62 *2:77 *4:59 0
63 *3:23 *4:17 0.000940656
64 *3:23 *4:19 0.000225638
65 *3:23 *4:75 0
66 *3:37 *4:35 0.000243466
67 *3:57 *4:59 0.105681
68 *3:81 *4:75 0.153152
*RES
1 io_in[12] *4:5 212.42 
2 *4:5 *4:7 4.5 
3 *4:7 *4:9 216.84 
4 *4:9 *4:17 33.544 
5 *4:17 *4:19 366.184 
6 *4:19 *601:io_in[7] 4.524 
7 *4:19 *4:33 4.5 
8 *4:33 *4:35 92.456 
9 *4:35 *4:37 4.5 
10 *4:37 *4:39 92.872 
11 *4:39 *4:43 11.26 
12 *4:43 *602:io_in_1[7] 5.564 
13 *4:43 *4:53 4.5 
14 *4:53 *4:55 90.792 
15 *4:55 *4:57 4.5 
16 *4:57 *4:59 271.128 
17 *4:59 *4:65 45.504 
18 *4:65 *600:io_in[7] 12.116 
19 *4:17 *4:73 4.5 
20 *4:73 *4:75 389.064 
21 *4:75 *599:io_in[12] 9.96 
*END

*D_NET *5 1.02169
*CONN
*P io_in[13] I
*I *599:io_in[13] I *D multiplexer
*I *601:io_in[8] I *D wrapped_qcpu
*I *600:io_in[8] I *D wrapped_sid
*CAP
1 io_in[13] 0.00120019
2 *599:io_in[13] 0.00108465
3 *601:io_in[8] 0.000566566
4 *600:io_in[8] 0.00396691
5 *5:59 0.00492082
6 *5:57 0.00383617
7 *5:37 0.00424775
8 *5:35 0.000280838
9 *5:33 0.0245269
10 *5:31 0.0250935
11 *5:29 0.0237319
12 *5:27 0.0240347
13 *5:21 0.00118963
14 *5:13 0.018238
15 *5:11 0.0173512
16 *5:9 0.0357821
17 *5:7 0.0369823
18 *601:io_in[8] *8:41 0.00118169
19 *601:io_in[8] *524:13 0
20 *5:7 *6:13 0
21 *5:9 *38:11 0.000347675
22 *5:9 *44:17 0.0246391
23 *5:13 *33:13 9.19908e-05
24 *5:13 *77:9 0.0150185
25 *5:13 *99:9 0.000418503
26 *5:21 *77:9 0.00247229
27 *5:33 *601:custom_settings[31] 0.00688148
28 *5:33 *8:41 0.121045
29 *5:33 *524:13 0
30 *5:37 *599:wbs_dat_i[9] 0.0550891
31 *5:37 *19:29 0.00307983
32 *5:37 *356:13 0.0550798
33 *5:37 *362:13 0.00217776
34 *5:59 *599:io_in[15] 0.00069578
35 *5:59 *8:57 0.184626
36 *5:59 *9:37 0.162487
37 *5:59 *18:35 0.000106431
38 *5:59 *38:89 0.000574281
39 *601:io_in[7] *5:29 0.000242172
40 *3:23 *5:29 0.000113027
41 *3:81 *5:59 0.0170343
42 *4:19 *5:29 0.140912
43 *4:75 *5:59 0.000346158
*RES
1 io_in[13] *5:7 14.12 
2 *5:7 *5:9 301.288 
3 *5:9 *5:11 4.5 
4 *5:11 *5:13 207.584 
5 *5:13 *5:21 13.7894 
6 *5:21 *5:27 10.6306 
7 *5:27 *5:29 365.352 
8 *5:29 *5:31 4.5 
9 *5:31 *5:33 354.12 
10 *5:33 *5:35 4.5 
11 *5:35 *5:37 141.544 
12 *5:37 *600:io_in[8] 32.424 
13 *5:31 *601:io_in[8] 10.272 
14 *5:21 *5:57 4.5 
15 *5:57 *5:59 165.512 
16 *5:59 *599:io_in[13] 19.1346 
*END

*D_NET *6 0.859695
*CONN
*P io_in[14] I
*I *599:io_in[14] I *D multiplexer
*I *600:io_in[9] I *D wrapped_sid
*I *601:io_in[9] I *D wrapped_qcpu
*CAP
1 io_in[14] 0.00140259
2 *599:io_in[14] 0.00233008
3 *600:io_in[9] 0.00097552
4 *601:io_in[9] 0.00202417
5 *6:57 0.0200432
6 *6:55 0.0177131
7 *6:53 0.00134853
8 *6:51 0.00134853
9 *6:49 0.00102213
10 *6:39 0.00239258
11 *6:37 0.00166119
12 *6:33 0.00126626
13 *6:31 0.0116266
14 *6:29 0.0116266
15 *6:21 0.00624909
16 *6:17 0.0809322
17 *6:15 0.0767072
18 *6:13 0.0239029
19 *6:11 0.0239029
20 *6:9 0.0086195
21 *6:7 0.0100221
22 *599:io_in[14] *599:io_in[15] 0.020485
23 *599:io_in[14] *9:57 0.000660605
24 *599:io_in[14] *15:19 0.000255642
25 *599:io_in[14] *18:35 0.0108687
26 *6:31 *7:27 0.149624
27 *6:31 *473:9 0.000330495
28 *6:31 *474:9 0.0897242
29 *6:37 *26:28 0.00290869
30 *6:37 *26:32 0.00145463
31 *6:37 *27:47 0.00115389
32 *6:37 *27:51 0.00058686
33 *6:39 *599:wbs_adr_i[29] 0.000688617
34 *6:39 *24:39 0.00814719
35 *6:39 *26:34 0.000638397
36 *6:39 *27:51 0.0161785
37 *6:39 *393:17 0.000277656
38 *6:39 *396:25 0.0299418
39 *6:39 *401:17 0.00156597
40 *6:39 *404:19 0.0293806
41 *6:49 *26:28 0.030658
42 *6:49 *27:45 0.000612693
43 *6:49 *27:47 0.0114314
44 *6:49 *554:15 0.000838293
45 *6:53 *13:45 0
46 *6:53 *28:21 0.0171056
47 *6:53 *551:23 0.000254713
48 *6:53 *556:15 0.0175363
49 *6:57 *7:53 0.075998
50 *6:57 *39:9 0
51 *6:57 *42:9 0
52 *6:57 *43:9 0
53 *6:57 *61:9 0.0320467
54 *6:57 *71:9 0.000934351
55 *6:57 *74:11 0
56 *6:57 *553:25 0
57 *1:13 *599:io_in[14] 0
58 *2:19 *599:io_in[14] 0.000289801
59 *5:7 *6:13 0
*RES
1 io_in[14] *6:7 13.704 
2 *6:7 *6:9 72.28 
3 *6:9 *6:11 4.5 
4 *6:11 *6:13 209.56 
5 *6:13 *6:15 4.5 
6 *6:15 *6:17 628.784 
7 *6:17 *6:21 33.592 
8 *6:21 *601:io_in[9] 13.78 
9 *6:21 *6:29 4.5 
10 *6:29 *6:31 380.744 
11 *6:31 *6:33 4.5 
12 *6:33 *6:37 11.544 
13 *6:37 *6:39 136.448 
14 *6:39 *600:io_in[9] 11.416 
15 *6:33 *6:49 78.728 
16 *6:49 *6:51 4.5 
17 *6:51 *6:53 51.064 
18 *6:53 *6:55 4.5 
19 *6:55 *6:57 275.893 
20 *6:57 *599:io_in[14] 40.542 
*END

*D_NET *7 0.856464
*CONN
*P io_in[15] I
*I *601:io_in[10] I *D wrapped_qcpu
*I *599:io_in[15] I *D multiplexer
*I *600:io_in[10] I *D wrapped_sid
*CAP
1 io_in[15] 0.00373492
2 *601:io_in[10] 0.00197378
3 *599:io_in[15] 0.00335533
4 *600:io_in[10] 0.000841723
5 *7:53 0.0157888
6 *7:51 0.0124334
7 *7:49 0.000732573
8 *7:47 0.000732573
9 *7:45 0.00311763
10 *7:43 0.00329574
11 *7:31 0.00445649
12 *7:29 0.00379288
13 *7:27 0.0306328
14 *7:25 0.0332133
15 *7:17 0.0127875
16 *7:15 0.0121808
17 *7:13 0.0932436
18 *7:11 0.0969786
19 *599:io_in[15] *15:19 0.000176261
20 *599:io_in[15] *16:19 0.000687098
21 *599:io_in[15] *18:35 0.000508467
22 *599:io_in[15] *30:45 0.000966257
23 *601:io_in[10] *601:io_in[11] 0
24 *601:io_in[10] *8:29 0
25 *7:17 *515:23 0.0606535
26 *7:25 *8:29 0.00247487
27 *7:25 *474:9 0.000219354
28 *7:27 *10:39 0
29 *7:27 *10:53 0
30 *7:27 *474:9 0.000425766
31 *7:31 *9:69 0.00394009
32 *7:31 *24:39 0.0013036
33 *7:31 *25:25 0.00261037
34 *7:31 *25:27 0.0217089
35 *7:31 *26:28 0.0011452
36 *7:31 *26:32 0.00058686
37 *7:31 *26:34 0.0181271
38 *7:31 *393:17 0.0298405
39 *7:43 *25:25 0.00424532
40 *7:43 *26:28 0.0017529
41 *7:45 *599:wbs_adr_i[28] 0.00185314
42 *7:45 *599:wbs_adr_i[29] 0
43 *7:45 *25:25 0.0234182
44 *7:45 *26:28 0.0539828
45 *7:45 *549:9 0.000702737
46 *7:45 *554:15 0.000832884