*SPEF "ieee 1481-1999"
*DESIGN "user_project_wrapper"
*DATE "11:11:11 Fri 11 11, 1111"
*VENDOR "OpenRCX"
*PROGRAM "Parallel Extraction"
*VERSION "1.0"
*DESIGN_FLOW "NAME_SCOPE LOCAL" "PIN_CAP NONE"
*DIVIDER /
*DELIMITER :
*BUS_DELIMITER []
*T_UNIT 1 NS
*C_UNIT 1 PF
*R_UNIT 1 OHM
*L_UNIT 1 HENRY

*NAME_MAP
*1 io_in[0]
*2 io_in[10]
*3 io_in[11]
*4 io_in[12]
*5 io_in[13]
*6 io_in[14]
*7 io_in[15]
*8 io_in[16]
*9 io_in[17]
*10 io_in[18]
*11 io_in[19]
*12 io_in[1]
*13 io_in[20]
*14 io_in[21]
*15 io_in[22]
*16 io_in[23]
*17 io_in[24]
*18 io_in[25]
*19 io_in[26]
*20 io_in[27]
*21 io_in[28]
*22 io_in[29]
*23 io_in[2]
*24 io_in[30]
*25 io_in[31]
*26 io_in[32]
*27 io_in[33]
*28 io_in[34]
*29 io_in[35]
*30 io_in[36]
*31 io_in[37]
*32 io_in[3]
*33 io_in[4]
*34 io_in[5]
*35 io_in[6]
*36 io_in[7]
*37 io_in[8]
*38 io_in[9]
*39 io_oeb[0]
*40 io_oeb[10]
*41 io_oeb[11]
*42 io_oeb[12]
*43 io_oeb[13]
*44 io_oeb[14]
*45 io_oeb[15]
*46 io_oeb[16]
*47 io_oeb[17]
*48 io_oeb[18]
*49 io_oeb[19]
*50 io_oeb[1]
*51 io_oeb[20]
*52 io_oeb[21]
*53 io_oeb[22]
*54 io_oeb[23]
*55 io_oeb[24]
*56 io_oeb[25]
*57 io_oeb[26]
*58 io_oeb[27]
*59 io_oeb[28]
*60 io_oeb[29]
*61 io_oeb[2]
*62 io_oeb[30]
*63 io_oeb[31]
*64 io_oeb[32]
*65 io_oeb[33]
*66 io_oeb[34]
*67 io_oeb[35]
*68 io_oeb[36]
*69 io_oeb[37]
*70 io_oeb[3]
*71 io_oeb[4]
*72 io_oeb[5]
*73 io_oeb[6]
*74 io_oeb[7]
*75 io_oeb[8]
*76 io_oeb[9]
*77 io_out[0]
*78 io_out[10]
*79 io_out[11]
*80 io_out[12]
*81 io_out[13]
*82 io_out[14]
*83 io_out[15]
*84 io_out[16]
*85 io_out[17]
*86 io_out[18]
*87 io_out[19]
*88 io_out[1]
*89 io_out[20]
*90 io_out[21]
*91 io_out[22]
*92 io_out[23]
*93 io_out[24]
*94 io_out[25]
*95 io_out[26]
*96 io_out[27]
*97 io_out[28]
*98 io_out[29]
*99 io_out[2]
*100 io_out[30]
*101 io_out[31]
*102 io_out[32]
*103 io_out[33]
*104 io_out[34]
*105 io_out[35]
*106 io_out[36]
*107 io_out[37]
*108 io_out[3]
*109 io_out[4]
*110 io_out[5]
*111 io_out[6]
*112 io_out[7]
*113 io_out[8]
*114 io_out[9]
*115 la_data_in[0]
*116 la_data_in[10]
*117 la_data_in[11]
*118 la_data_in[12]
*119 la_data_in[13]
*120 la_data_in[14]
*121 la_data_in[15]
*122 la_data_in[16]
*123 la_data_in[17]
*124 la_data_in[18]
*125 la_data_in[19]
*126 la_data_in[1]
*127 la_data_in[20]
*128 la_data_in[21]
*129 la_data_in[22]
*130 la_data_in[23]
*131 la_data_in[24]
*132 la_data_in[25]
*133 la_data_in[26]
*134 la_data_in[27]
*135 la_data_in[28]
*136 la_data_in[29]
*137 la_data_in[2]
*138 la_data_in[30]
*139 la_data_in[31]
*140 la_data_in[32]
*141 la_data_in[33]
*142 la_data_in[34]
*143 la_data_in[35]
*144 la_data_in[36]
*145 la_data_in[37]
*146 la_data_in[38]
*147 la_data_in[39]
*148 la_data_in[3]
*149 la_data_in[40]
*150 la_data_in[41]
*151 la_data_in[42]
*152 la_data_in[43]
*153 la_data_in[44]
*154 la_data_in[45]
*155 la_data_in[46]
*156 la_data_in[47]
*157 la_data_in[48]
*158 la_data_in[49]
*159 la_data_in[4]
*160 la_data_in[50]
*161 la_data_in[51]
*162 la_data_in[52]
*163 la_data_in[53]
*164 la_data_in[54]
*165 la_data_in[55]
*166 la_data_in[56]
*167 la_data_in[57]
*168 la_data_in[58]
*169 la_data_in[59]
*170 la_data_in[5]
*171 la_data_in[60]
*172 la_data_in[61]
*173 la_data_in[62]
*174 la_data_in[63]
*175 la_data_in[6]
*176 la_data_in[7]
*177 la_data_in[8]
*178 la_data_in[9]
*179 la_data_out[0]
*180 la_data_out[10]
*181 la_data_out[11]
*182 la_data_out[12]
*183 la_data_out[13]
*184 la_data_out[14]
*185 la_data_out[15]
*186 la_data_out[16]
*187 la_data_out[17]
*188 la_data_out[18]
*189 la_data_out[19]
*190 la_data_out[1]
*191 la_data_out[20]
*192 la_data_out[21]
*193 la_data_out[22]
*194 la_data_out[23]
*195 la_data_out[24]
*196 la_data_out[25]
*197 la_data_out[26]
*198 la_data_out[27]
*199 la_data_out[28]
*200 la_data_out[29]
*201 la_data_out[2]
*202 la_data_out[30]
*203 la_data_out[31]
*204 la_data_out[32]
*205 la_data_out[33]
*206 la_data_out[34]
*207 la_data_out[35]
*208 la_data_out[36]
*209 la_data_out[37]
*210 la_data_out[38]
*211 la_data_out[39]
*212 la_data_out[3]
*213 la_data_out[40]
*214 la_data_out[41]
*215 la_data_out[42]
*216 la_data_out[43]
*217 la_data_out[44]
*218 la_data_out[45]
*219 la_data_out[46]
*220 la_data_out[47]
*221 la_data_out[48]
*222 la_data_out[49]
*223 la_data_out[4]
*224 la_data_out[50]
*225 la_data_out[51]
*226 la_data_out[52]
*227 la_data_out[53]
*228 la_data_out[54]
*229 la_data_out[55]
*230 la_data_out[56]
*231 la_data_out[57]
*232 la_data_out[58]
*233 la_data_out[59]
*234 la_data_out[5]
*235 la_data_out[60]
*236 la_data_out[61]
*237 la_data_out[62]
*238 la_data_out[63]
*239 la_data_out[6]
*240 la_data_out[7]
*241 la_data_out[8]
*242 la_data_out[9]
*243 la_oenb[0]
*244 la_oenb[10]
*245 la_oenb[11]
*246 la_oenb[12]
*247 la_oenb[13]
*248 la_oenb[14]
*249 la_oenb[15]
*250 la_oenb[16]
*251 la_oenb[17]
*252 la_oenb[18]
*253 la_oenb[19]
*254 la_oenb[1]
*255 la_oenb[20]
*256 la_oenb[21]
*257 la_oenb[22]
*258 la_oenb[23]
*259 la_oenb[24]
*260 la_oenb[25]
*261 la_oenb[26]
*262 la_oenb[27]
*263 la_oenb[28]
*264 la_oenb[29]
*265 la_oenb[2]
*266 la_oenb[30]
*267 la_oenb[31]
*268 la_oenb[32]
*269 la_oenb[33]
*270 la_oenb[34]
*271 la_oenb[35]
*272 la_oenb[36]
*273 la_oenb[37]
*274 la_oenb[38]
*275 la_oenb[39]
*276 la_oenb[3]
*277 la_oenb[40]
*278 la_oenb[41]
*279 la_oenb[42]
*280 la_oenb[43]
*281 la_oenb[44]
*282 la_oenb[45]
*283 la_oenb[46]
*284 la_oenb[47]
*285 la_oenb[48]
*286 la_oenb[49]
*287 la_oenb[4]
*288 la_oenb[50]
*289 la_oenb[51]
*290 la_oenb[52]
*291 la_oenb[53]
*292 la_oenb[54]
*293 la_oenb[55]
*294 la_oenb[56]
*295 la_oenb[57]
*296 la_oenb[58]
*297 la_oenb[59]
*298 la_oenb[5]
*299 la_oenb[60]
*300 la_oenb[61]
*301 la_oenb[62]
*302 la_oenb[63]
*303 la_oenb[6]
*304 la_oenb[7]
*305 la_oenb[8]
*306 la_oenb[9]
*307 user_clock2
*308 user_irq[0]
*309 user_irq[1]
*310 user_irq[2]
*313 wb_clk_i
*314 wb_rst_i
*315 wbs_ack_o
*316 wbs_adr_i[0]
*317 wbs_adr_i[10]
*318 wbs_adr_i[11]
*319 wbs_adr_i[12]
*320 wbs_adr_i[13]
*321 wbs_adr_i[14]
*322 wbs_adr_i[15]
*323 wbs_adr_i[16]
*324 wbs_adr_i[17]
*325 wbs_adr_i[18]
*326 wbs_adr_i[19]
*327 wbs_adr_i[1]
*328 wbs_adr_i[20]
*329 wbs_adr_i[21]
*330 wbs_adr_i[22]
*331 wbs_adr_i[23]
*332 wbs_adr_i[24]
*333 wbs_adr_i[25]
*334 wbs_adr_i[26]
*335 wbs_adr_i[27]
*336 wbs_adr_i[28]
*337 wbs_adr_i[29]
*338 wbs_adr_i[2]
*339 wbs_adr_i[30]
*340 wbs_adr_i[31]
*341 wbs_adr_i[3]
*342 wbs_adr_i[4]
*343 wbs_adr_i[5]
*344 wbs_adr_i[6]
*345 wbs_adr_i[7]
*346 wbs_adr_i[8]
*347 wbs_adr_i[9]
*348 wbs_cyc_i
*349 wbs_dat_i[0]
*350 wbs_dat_i[10]
*351 wbs_dat_i[11]
*352 wbs_dat_i[12]
*353 wbs_dat_i[13]
*354 wbs_dat_i[14]
*355 wbs_dat_i[15]
*356 wbs_dat_i[16]
*357 wbs_dat_i[17]
*358 wbs_dat_i[18]
*359 wbs_dat_i[19]
*360 wbs_dat_i[1]
*361 wbs_dat_i[20]
*362 wbs_dat_i[21]
*363 wbs_dat_i[22]
*364 wbs_dat_i[23]
*365 wbs_dat_i[24]
*366 wbs_dat_i[25]
*367 wbs_dat_i[26]
*368 wbs_dat_i[27]
*369 wbs_dat_i[28]
*370 wbs_dat_i[29]
*371 wbs_dat_i[2]
*372 wbs_dat_i[30]
*373 wbs_dat_i[31]
*374 wbs_dat_i[3]
*375 wbs_dat_i[4]
*376 wbs_dat_i[5]
*377 wbs_dat_i[6]
*378 wbs_dat_i[7]
*379 wbs_dat_i[8]
*380 wbs_dat_i[9]
*381 wbs_dat_o[0]
*382 wbs_dat_o[10]
*383 wbs_dat_o[11]
*384 wbs_dat_o[12]
*385 wbs_dat_o[13]
*386 wbs_dat_o[14]
*387 wbs_dat_o[15]
*388 wbs_dat_o[16]
*389 wbs_dat_o[17]
*390 wbs_dat_o[18]
*391 wbs_dat_o[19]
*392 wbs_dat_o[1]
*393 wbs_dat_o[20]
*394 wbs_dat_o[21]
*395 wbs_dat_o[22]
*396 wbs_dat_o[23]
*397 wbs_dat_o[24]
*398 wbs_dat_o[25]
*399 wbs_dat_o[26]
*400 wbs_dat_o[27]
*401 wbs_dat_o[28]
*402 wbs_dat_o[29]
*403 wbs_dat_o[2]
*404 wbs_dat_o[30]
*405 wbs_dat_o[31]
*406 wbs_dat_o[3]
*407 wbs_dat_o[4]
*408 wbs_dat_o[5]
*409 wbs_dat_o[6]
*410 wbs_dat_o[7]
*411 wbs_dat_o[8]
*412 wbs_dat_o[9]
*413 wbs_sel_i[0]
*414 wbs_sel_i[1]
*415 wbs_sel_i[2]
*416 wbs_sel_i[3]
*417 wbs_stb_i
*418 wbs_we_i
*419 ay8913_do\[0\]
*420 ay8913_do\[10\]
*421 ay8913_do\[11\]
*422 ay8913_do\[12\]
*423 ay8913_do\[13\]
*424 ay8913_do\[14\]
*425 ay8913_do\[15\]
*426 ay8913_do\[16\]
*427 ay8913_do\[17\]
*428 ay8913_do\[18\]
*429 ay8913_do\[19\]
*430 ay8913_do\[1\]
*431 ay8913_do\[20\]
*432 ay8913_do\[21\]
*433 ay8913_do\[22\]
*434 ay8913_do\[23\]
*435 ay8913_do\[24\]
*436 ay8913_do\[25\]
*437 ay8913_do\[26\]
*438 ay8913_do\[27\]
*439 ay8913_do\[2\]
*440 ay8913_do\[3\]
*441 ay8913_do\[4\]
*442 ay8913_do\[5\]
*443 ay8913_do\[6\]
*444 ay8913_do\[7\]
*445 ay8913_do\[8\]
*446 ay8913_do\[9\]
*447 blinker_do\[0\]
*448 blinker_do\[1\]
*449 blinker_do\[2\]
*450 custom_settings\[0\]
*451 custom_settings\[10\]
*452 custom_settings\[11\]
*453 custom_settings\[12\]
*454 custom_settings\[13\]
*455 custom_settings\[14\]
*456 custom_settings\[15\]
*457 custom_settings\[16\]
*458 custom_settings\[17\]
*459 custom_settings\[18\]
*460 custom_settings\[19\]
*461 custom_settings\[1\]
*462 custom_settings\[20\]
*463 custom_settings\[21\]
*464 custom_settings\[22\]
*465 custom_settings\[23\]
*466 custom_settings\[24\]
*467 custom_settings\[25\]
*468 custom_settings\[26\]
*469 custom_settings\[27\]
*470 custom_settings\[28\]
*471 custom_settings\[29\]
*472 custom_settings\[2\]
*473 custom_settings\[30\]
*474 custom_settings\[31\]
*475 custom_settings\[3\]
*476 custom_settings\[4\]
*477 custom_settings\[5\]
*478 custom_settings\[6\]
*479 custom_settings\[7\]
*480 custom_settings\[8\]
*481 custom_settings\[9\]
*482 hellorld_do
*483 mc14500_do\[0\]
*484 mc14500_do\[10\]
*485 mc14500_do\[11\]
*486 mc14500_do\[12\]
*487 mc14500_do\[13\]
*488 mc14500_do\[14\]
*489 mc14500_do\[15\]
*490 mc14500_do\[16\]
*491 mc14500_do\[17\]
*492 mc14500_do\[18\]
*493 mc14500_do\[19\]
*494 mc14500_do\[1\]
*495 mc14500_do\[20\]
*496 mc14500_do\[21\]
*497 mc14500_do\[22\]
*498 mc14500_do\[23\]
*499 mc14500_do\[24\]
*500 mc14500_do\[25\]
*501 mc14500_do\[26\]
*502 mc14500_do\[27\]
*503 mc14500_do\[28\]
*504 mc14500_do\[29\]
*505 mc14500_do\[2\]
*506 mc14500_do\[30\]
*507 mc14500_do\[3\]
*508 mc14500_do\[4\]
*509 mc14500_do\[5\]
*510 mc14500_do\[6\]
*511 mc14500_do\[7\]
*512 mc14500_do\[8\]
*513 mc14500_do\[9\]
*514 mc14500_sram_addr\[0\]
*515 mc14500_sram_addr\[1\]
*516 mc14500_sram_addr\[2\]
*517 mc14500_sram_addr\[3\]
*518 mc14500_sram_addr\[4\]
*519 mc14500_sram_addr\[5\]
*520 mc14500_sram_gwe
*521 mc14500_sram_in\[0\]
*522 mc14500_sram_in\[1\]
*523 mc14500_sram_in\[2\]
*524 mc14500_sram_in\[3\]
*525 mc14500_sram_in\[4\]
*526 mc14500_sram_in\[5\]
*527 mc14500_sram_in\[6\]
*528 mc14500_sram_in\[7\]
*529 pdp11_do\[0\]
*530 pdp11_do\[10\]
*531 pdp11_do\[11\]
*532 pdp11_do\[12\]
*533 pdp11_do\[13\]
*534 pdp11_do\[14\]
*535 pdp11_do\[15\]
*536 pdp11_do\[16\]
*537 pdp11_do\[17\]
*538 pdp11_do\[18\]
*539 pdp11_do\[19\]
*540 pdp11_do\[1\]
*541 pdp11_do\[20\]
*542 pdp11_do\[21\]
*543 pdp11_do\[22\]
*544 pdp11_do\[23\]
*545 pdp11_do\[24\]
*546 pdp11_do\[25\]
*547 pdp11_do\[26\]
*548 pdp11_do\[27\]
*549 pdp11_do\[28\]
*550 pdp11_do\[29\]
*551 pdp11_do\[2\]
*552 pdp11_do\[30\]
*553 pdp11_do\[31\]
*554 pdp11_do\[32\]
*555 pdp11_do\[3\]
*556 pdp11_do\[4\]
*557 pdp11_do\[5\]
*558 pdp11_do\[6\]
*559 pdp11_do\[7\]
*560 pdp11_do\[8\]
*561 pdp11_do\[9\]
*562 pdp11_oeb\[0\]
*563 pdp11_oeb\[10\]
*564 pdp11_oeb\[11\]
*565 pdp11_oeb\[12\]
*566 pdp11_oeb\[13\]
*567 pdp11_oeb\[14\]
*568 pdp11_oeb\[15\]
*569 pdp11_oeb\[16\]
*570 pdp11_oeb\[17\]
*571 pdp11_oeb\[18\]
*572 pdp11_oeb\[19\]
*573 pdp11_oeb\[1\]
*574 pdp11_oeb\[20\]
*575 pdp11_oeb\[21\]
*576 pdp11_oeb\[22\]
*577 pdp11_oeb\[23\]
*578 pdp11_oeb\[24\]
*579 pdp11_oeb\[25\]
*580 pdp11_oeb\[26\]
*581 pdp11_oeb\[27\]
*582 pdp11_oeb\[28\]
*583 pdp11_oeb\[29\]
*584 pdp11_oeb\[2\]
*585 pdp11_oeb\[30\]
*586 pdp11_oeb\[31\]
*587 pdp11_oeb\[32\]
*588 pdp11_oeb\[3\]
*589 pdp11_oeb\[4\]
*590 pdp11_oeb\[5\]
*591 pdp11_oeb\[6\]
*592 pdp11_oeb\[7\]
*593 pdp11_oeb\[8\]
*594 pdp11_oeb\[9\]
*595 qcpu_do\[0\]
*596 qcpu_do\[10\]
*597 qcpu_do\[11\]
*598 qcpu_do\[12\]
*599 qcpu_do\[13\]
*600 qcpu_do\[14\]
*601 qcpu_do\[15\]
*602 qcpu_do\[16\]
*603 qcpu_do\[17\]
*604 qcpu_do\[18\]
*605 qcpu_do\[19\]
*606 qcpu_do\[1\]
*607 qcpu_do\[20\]
*608 qcpu_do\[21\]
*609 qcpu_do\[22\]
*610 qcpu_do\[23\]
*611 qcpu_do\[24\]
*612 qcpu_do\[25\]
*613 qcpu_do\[26\]
*614 qcpu_do\[27\]
*615 qcpu_do\[28\]
*616 qcpu_do\[29\]
*617 qcpu_do\[2\]
*618 qcpu_do\[30\]
*619 qcpu_do\[31\]
*620 qcpu_do\[32\]
*621 qcpu_do\[3\]
*622 qcpu_do\[4\]
*623 qcpu_do\[5\]
*624 qcpu_do\[6\]
*625 qcpu_do\[7\]
*626 qcpu_do\[8\]
*627 qcpu_do\[9\]
*628 qcpu_oeb\[0\]
*629 qcpu_oeb\[10\]
*630 qcpu_oeb\[11\]
*631 qcpu_oeb\[12\]
*632 qcpu_oeb\[13\]
*633 qcpu_oeb\[14\]
*634 qcpu_oeb\[15\]
*635 qcpu_oeb\[16\]
*636 qcpu_oeb\[17\]
*637 qcpu_oeb\[18\]
*638 qcpu_oeb\[19\]
*639 qcpu_oeb\[1\]
*640 qcpu_oeb\[20\]
*641 qcpu_oeb\[21\]
*642 qcpu_oeb\[22\]
*643 qcpu_oeb\[23\]
*644 qcpu_oeb\[24\]
*645 qcpu_oeb\[25\]
*646 qcpu_oeb\[26\]
*647 qcpu_oeb\[27\]
*648 qcpu_oeb\[28\]
*649 qcpu_oeb\[29\]
*650 qcpu_oeb\[2\]
*651 qcpu_oeb\[30\]
*652 qcpu_oeb\[31\]
*653 qcpu_oeb\[32\]
*654 qcpu_oeb\[3\]
*655 qcpu_oeb\[4\]
*656 qcpu_oeb\[5\]
*657 qcpu_oeb\[6\]
*658 qcpu_oeb\[7\]
*659 qcpu_oeb\[8\]
*660 qcpu_oeb\[9\]
*661 qcpu_sram_addr\[0\]
*662 qcpu_sram_addr\[1\]
*663 qcpu_sram_addr\[2\]
*664 qcpu_sram_addr\[3\]
*665 qcpu_sram_addr\[4\]
*666 qcpu_sram_addr\[5\]
*667 qcpu_sram_gwe
*668 qcpu_sram_in\[0\]
*669 qcpu_sram_in\[1\]
*670 qcpu_sram_in\[2\]
*671 qcpu_sram_in\[3\]
*672 qcpu_sram_in\[4\]
*673 qcpu_sram_in\[5\]
*674 qcpu_sram_in\[6\]
*675 qcpu_sram_in\[7\]
*676 qcpu_sram_out\[0\]
*677 qcpu_sram_out\[1\]
*678 qcpu_sram_out\[2\]
*679 qcpu_sram_out\[3\]
*680 qcpu_sram_out\[4\]
*681 qcpu_sram_out\[5\]
*682 qcpu_sram_out\[6\]
*683 qcpu_sram_out\[7\]
*684 rst_ay8913
*685 rst_blinker
*686 rst_hellorld
*687 rst_mc14500
*688 rst_pdp11
*689 rst_qcpu
*690 rst_sid
*691 rst_sn76489
*692 rst_tbb1143
*693 rst_tholin_riscv
*694 sid_do\[0\]
*695 sid_do\[10\]
*696 sid_do\[11\]
*697 sid_do\[12\]
*698 sid_do\[13\]
*699 sid_do\[14\]
*700 sid_do\[15\]
*701 sid_do\[16\]
*702 sid_do\[17\]
*703 sid_do\[18\]
*704 sid_do\[19\]
*705 sid_do\[1\]
*706 sid_do\[20\]
*707 sid_do\[2\]
*708 sid_do\[3\]
*709 sid_do\[4\]
*710 sid_do\[5\]
*711 sid_do\[6\]
*712 sid_do\[7\]
*713 sid_do\[8\]
*714 sid_do\[9\]
*715 sid_oeb
*716 sn76489_do\[0\]
*717 sn76489_do\[10\]
*718 sn76489_do\[11\]
*719 sn76489_do\[12\]
*720 sn76489_do\[13\]
*721 sn76489_do\[14\]
*722 sn76489_do\[15\]
*723 sn76489_do\[16\]
*724 sn76489_do\[17\]
*725 sn76489_do\[18\]
*726 sn76489_do\[19\]
*727 sn76489_do\[1\]
*728 sn76489_do\[20\]
*729 sn76489_do\[21\]
*730 sn76489_do\[22\]
*731 sn76489_do\[23\]
*732 sn76489_do\[24\]
*733 sn76489_do\[25\]
*734 sn76489_do\[26\]
*735 sn76489_do\[27\]
*736 sn76489_do\[2\]
*737 sn76489_do\[3\]
*738 sn76489_do\[4\]
*739 sn76489_do\[5\]
*740 sn76489_do\[6\]
*741 sn76489_do\[7\]
*742 sn76489_do\[8\]
*743 sn76489_do\[9\]
*744 tbb1143_do\[0\]
*745 tbb1143_do\[1\]
*746 tbb1143_do\[2\]
*747 tbb1143_do\[3\]
*748 tbb1143_do\[4\]
*749 tholin_riscv_do\[0\]
*750 tholin_riscv_do\[10\]
*751 tholin_riscv_do\[11\]
*752 tholin_riscv_do\[12\]
*753 tholin_riscv_do\[13\]
*754 tholin_riscv_do\[14\]
*755 tholin_riscv_do\[15\]
*756 tholin_riscv_do\[16\]
*757 tholin_riscv_do\[17\]
*758 tholin_riscv_do\[18\]
*759 tholin_riscv_do\[19\]
*760 tholin_riscv_do\[1\]
*761 tholin_riscv_do\[20\]
*762 tholin_riscv_do\[21\]
*763 tholin_riscv_do\[22\]
*764 tholin_riscv_do\[23\]
*765 tholin_riscv_do\[24\]
*766 tholin_riscv_do\[25\]
*767 tholin_riscv_do\[26\]
*768 tholin_riscv_do\[27\]
*769 tholin_riscv_do\[28\]
*770 tholin_riscv_do\[29\]
*771 tholin_riscv_do\[2\]
*772 tholin_riscv_do\[30\]
*773 tholin_riscv_do\[31\]
*774 tholin_riscv_do\[32\]
*775 tholin_riscv_do\[3\]
*776 tholin_riscv_do\[4\]
*777 tholin_riscv_do\[5\]
*778 tholin_riscv_do\[6\]
*779 tholin_riscv_do\[7\]
*780 tholin_riscv_do\[8\]
*781 tholin_riscv_do\[9\]
*782 tholin_riscv_oeb\[0\]
*783 tholin_riscv_oeb\[10\]
*784 tholin_riscv_oeb\[11\]
*785 tholin_riscv_oeb\[12\]
*786 tholin_riscv_oeb\[13\]
*787 tholin_riscv_oeb\[14\]
*788 tholin_riscv_oeb\[15\]
*789 tholin_riscv_oeb\[16\]
*790 tholin_riscv_oeb\[17\]
*791 tholin_riscv_oeb\[18\]
*792 tholin_riscv_oeb\[19\]
*793 tholin_riscv_oeb\[1\]
*794 tholin_riscv_oeb\[20\]
*795 tholin_riscv_oeb\[21\]
*796 tholin_riscv_oeb\[22\]
*797 tholin_riscv_oeb\[23\]
*798 tholin_riscv_oeb\[24\]
*799 tholin_riscv_oeb\[25\]
*800 tholin_riscv_oeb\[26\]
*801 tholin_riscv_oeb\[27\]
*802 tholin_riscv_oeb\[28\]
*803 tholin_riscv_oeb\[29\]
*804 tholin_riscv_oeb\[2\]
*805 tholin_riscv_oeb\[30\]
*806 tholin_riscv_oeb\[31\]
*807 tholin_riscv_oeb\[32\]
*808 tholin_riscv_oeb\[3\]
*809 tholin_riscv_oeb\[4\]
*810 tholin_riscv_oeb\[5\]
*811 tholin_riscv_oeb\[6\]
*812 tholin_riscv_oeb\[7\]
*813 tholin_riscv_oeb\[8\]
*814 tholin_riscv_oeb\[9\]
*815 avali_logo
*816 ay8913
*817 blinker
*818 hellorld
*819 mc14500
*820 multiplexer
*821 sid
*822 tbb1143
*823 wrapped_pdp11
*824 wrapped_qcpu
*825 wrapped_sn76489
*826 wrapped_tholin_riscv

*PORTS
io_in[0] I
io_in[10] I
io_in[11] I
io_in[12] I
io_in[13] I
io_in[14] I
io_in[15] I
io_in[16] I
io_in[17] I
io_in[18] I
io_in[19] I
io_in[1] I
io_in[20] I
io_in[21] I
io_in[22] I
io_in[23] I
io_in[24] I
io_in[25] I
io_in[26] I
io_in[27] I
io_in[28] I
io_in[29] I
io_in[2] I
io_in[30] I
io_in[31] I
io_in[32] I
io_in[33] I
io_in[34] I
io_in[35] I
io_in[36] I
io_in[37] I
io_in[3] I
io_in[4] I
io_in[5] I
io_in[6] I
io_in[7] I
io_in[8] I
io_in[9] I
io_oeb[0] O
io_oeb[10] O
io_oeb[11] O
io_oeb[12] O
io_oeb[13] O
io_oeb[14] O
io_oeb[15] O
io_oeb[16] O
io_oeb[17] O
io_oeb[18] O
io_oeb[19] O
io_oeb[1] O
io_oeb[20] O
io_oeb[21] O
io_oeb[22] O
io_oeb[23] O
io_oeb[24] O
io_oeb[25] O
io_oeb[26] O
io_oeb[27] O
io_oeb[28] O
io_oeb[29] O
io_oeb[2] O
io_oeb[30] O
io_oeb[31] O
io_oeb[32] O
io_oeb[33] O
io_oeb[34] O
io_oeb[35] O
io_oeb[36] O
io_oeb[37] O
io_oeb[3] O
io_oeb[4] O
io_oeb[5] O
io_oeb[6] O
io_oeb[7] O
io_oeb[8] O
io_oeb[9] O
io_out[0] O
io_out[10] O
io_out[11] O
io_out[12] O
io_out[13] O
io_out[14] O
io_out[15] O
io_out[16] O
io_out[17] O
io_out[18] O
io_out[19] O
io_out[1] O
io_out[20] O
io_out[21] O
io_out[22] O
io_out[23] O
io_out[24] O
io_out[25] O
io_out[26] O
io_out[27] O
io_out[28] O
io_out[29] O
io_out[2] O
io_out[30] O
io_out[31] O
io_out[32] O
io_out[33] O
io_out[34] O
io_out[35] O
io_out[36] O
io_out[37] O
io_out[3] O
io_out[4] O
io_out[5] O
io_out[6] O
io_out[7] O
io_out[8] O
io_out[9] O
la_data_in[0] I
la_data_in[10] I
la_data_in[11] I
la_data_in[12] I
la_data_in[13] I
la_data_in[14] I
la_data_in[15] I
la_data_in[16] I
la_data_in[17] I
la_data_in[18] I
la_data_in[19] I
la_data_in[1] I
la_data_in[20] I
la_data_in[21] I
la_data_in[22] I
la_data_in[23] I
la_data_in[24] I
la_data_in[25] I
la_data_in[26] I
la_data_in[27] I
la_data_in[28] I
la_data_in[29] I
la_data_in[2] I
la_data_in[30] I
la_data_in[31] I
la_data_in[32] I
la_data_in[33] I
la_data_in[34] I
la_data_in[35] I
la_data_in[36] I
la_data_in[37] I
la_data_in[38] I
la_data_in[39] I
la_data_in[3] I
la_data_in[40] I
la_data_in[41] I
la_data_in[42] I
la_data_in[43] I
la_data_in[44] I
la_data_in[45] I
la_data_in[46] I
la_data_in[47] I
la_data_in[48] I
la_data_in[49] I
la_data_in[4] I
la_data_in[50] I
la_data_in[51] I
la_data_in[52] I
la_data_in[53] I
la_data_in[54] I
la_data_in[55] I
la_data_in[56] I
la_data_in[57] I
la_data_in[58] I
la_data_in[59] I
la_data_in[5] I
la_data_in[60] I
la_data_in[61] I
la_data_in[62] I
la_data_in[63] I
la_data_in[6] I
la_data_in[7] I
la_data_in[8] I
la_data_in[9] I
la_data_out[0] O
la_data_out[10] O
la_data_out[11] O
la_data_out[12] O
la_data_out[13] O
la_data_out[14] O
la_data_out[15] O
la_data_out[16] O
la_data_out[17] O
la_data_out[18] O
la_data_out[19] O
la_data_out[1] O
la_data_out[20] O
la_data_out[21] O
la_data_out[22] O
la_data_out[23] O
la_data_out[24] O
la_data_out[25] O
la_data_out[26] O
la_data_out[27] O
la_data_out[28] O
la_data_out[29] O
la_data_out[2] O
la_data_out[30] O
la_data_out[31] O
la_data_out[32] O
la_data_out[33] O
la_data_out[34] O
la_data_out[35] O
la_data_out[36] O
la_data_out[37] O
la_data_out[38] O
la_data_out[39] O
la_data_out[3] O
la_data_out[40] O
la_data_out[41] O
la_data_out[42] O
la_data_out[43] O
la_data_out[44] O
la_data_out[45] O
la_data_out[46] O
la_data_out[47] O
la_data_out[48] O
la_data_out[49] O
la_data_out[4] O
la_data_out[50] O
la_data_out[51] O
la_data_out[52] O
la_data_out[53] O
la_data_out[54] O
la_data_out[55] O
la_data_out[56] O
la_data_out[57] O
la_data_out[58] O
la_data_out[59] O
la_data_out[5] O
la_data_out[60] O
la_data_out[61] O
la_data_out[62] O
la_data_out[63] O
la_data_out[6] O
la_data_out[7] O
la_data_out[8] O
la_data_out[9] O
la_oenb[0] I
la_oenb[10] I
la_oenb[11] I
la_oenb[12] I
la_oenb[13] I
la_oenb[14] I
la_oenb[15] I
la_oenb[16] I
la_oenb[17] I
la_oenb[18] I
la_oenb[19] I
la_oenb[1] I
la_oenb[20] I
la_oenb[21] I
la_oenb[22] I
la_oenb[23] I
la_oenb[24] I
la_oenb[25] I
la_oenb[26] I
la_oenb[27] I
la_oenb[28] I
la_oenb[29] I
la_oenb[2] I
la_oenb[30] I
la_oenb[31] I
la_oenb[32] I
la_oenb[33] I
la_oenb[34] I
la_oenb[35] I
la_oenb[36] I
la_oenb[37] I
la_oenb[38] I
la_oenb[39] I
la_oenb[3] I
la_oenb[40] I
la_oenb[41] I
la_oenb[42] I
la_oenb[43] I
la_oenb[44] I
la_oenb[45] I
la_oenb[46] I
la_oenb[47] I
la_oenb[48] I
la_oenb[49] I
la_oenb[4] I
la_oenb[50] I
la_oenb[51] I
la_oenb[52] I
la_oenb[53] I
la_oenb[54] I
la_oenb[55] I
la_oenb[56] I
la_oenb[57] I
la_oenb[58] I
la_oenb[59] I
la_oenb[5] I
la_oenb[60] I
la_oenb[61] I
la_oenb[62] I
la_oenb[63] I
la_oenb[6] I
la_oenb[7] I
la_oenb[8] I
la_oenb[9] I
user_clock2 I
user_irq[0] O
user_irq[1] O
user_irq[2] O
wb_clk_i I
wb_rst_i I
wbs_ack_o O
wbs_adr_i[0] I
wbs_adr_i[10] I
wbs_adr_i[11] I
wbs_adr_i[12] I
wbs_adr_i[13] I
wbs_adr_i[14] I
wbs_adr_i[15] I
wbs_adr_i[16] I
wbs_adr_i[17] I
wbs_adr_i[18] I
wbs_adr_i[19] I
wbs_adr_i[1] I
wbs_adr_i[20] I
wbs_adr_i[21] I
wbs_adr_i[22] I
wbs_adr_i[23] I
wbs_adr_i[24] I
wbs_adr_i[25] I
wbs_adr_i[26] I
wbs_adr_i[27] I
wbs_adr_i[28] I
wbs_adr_i[29] I
wbs_adr_i[2] I
wbs_adr_i[30] I
wbs_adr_i[31] I
wbs_adr_i[3] I
wbs_adr_i[4] I
wbs_adr_i[5] I
wbs_adr_i[6] I
wbs_adr_i[7] I
wbs_adr_i[8] I
wbs_adr_i[9] I
wbs_cyc_i I
wbs_dat_i[0] I
wbs_dat_i[10] I
wbs_dat_i[11] I
wbs_dat_i[12] I
wbs_dat_i[13] I
wbs_dat_i[14] I
wbs_dat_i[15] I
wbs_dat_i[16] I
wbs_dat_i[17] I
wbs_dat_i[18] I
wbs_dat_i[19] I
wbs_dat_i[1] I
wbs_dat_i[20] I
wbs_dat_i[21] I
wbs_dat_i[22] I
wbs_dat_i[23] I
wbs_dat_i[24] I
wbs_dat_i[25] I
wbs_dat_i[26] I
wbs_dat_i[27] I
wbs_dat_i[28] I
wbs_dat_i[29] I
wbs_dat_i[2] I
wbs_dat_i[30] I
wbs_dat_i[31] I
wbs_dat_i[3] I
wbs_dat_i[4] I
wbs_dat_i[5] I
wbs_dat_i[6] I
wbs_dat_i[7] I
wbs_dat_i[8] I
wbs_dat_i[9] I
wbs_dat_o[0] O
wbs_dat_o[10] O
wbs_dat_o[11] O
wbs_dat_o[12] O
wbs_dat_o[13] O
wbs_dat_o[14] O
wbs_dat_o[15] O
wbs_dat_o[16] O
wbs_dat_o[17] O
wbs_dat_o[18] O
wbs_dat_o[19] O
wbs_dat_o[1] O
wbs_dat_o[20] O
wbs_dat_o[21] O
wbs_dat_o[22] O
wbs_dat_o[23] O
wbs_dat_o[24] O
wbs_dat_o[25] O
wbs_dat_o[26] O
wbs_dat_o[27] O
wbs_dat_o[28] O
wbs_dat_o[29] O
wbs_dat_o[2] O
wbs_dat_o[30] O
wbs_dat_o[31] O
wbs_dat_o[3] O
wbs_dat_o[4] O
wbs_dat_o[5] O
wbs_dat_o[6] O
wbs_dat_o[7] O
wbs_dat_o[8] O
wbs_dat_o[9] O
wbs_sel_i[0] I
wbs_sel_i[1] I
wbs_sel_i[2] I
wbs_sel_i[3] I
wbs_stb_i I
wbs_we_i I

*D_NET *1 0.473322
*CONN
*P io_in[0] I
*I *820:io_in_0 I *D multiplexer
*CAP
1 io_in[0] 0.0649592
2 *820:io_in_0 0.00276531
3 *1:17 0.03734
4 *1:15 0.0345747
5 *1:13 0.0197708
6 *1:11 0.0197708
7 *1:9 0.0232868
8 *1:7 0.0232868
9 *1:5 0.0649592
10 *820:io_in_0 *425:21 0
11 *820:io_in_0 *430:21 0.000533
12 *820:io_in_0 *431:47 0.000533
13 *1:9 *820:qcpu_do[28] 0.00312243
14 *1:9 *402:17 0.151833
15 *1:9 *409:25 0.00387673
16 *1:13 *73:21 0
17 *1:13 *88:21 0
18 *1:13 *338:9 0.000956414
19 *1:13 *506:17 0
20 *1:13 *698:25 0.0032099
21 *1:13 *701:13 0.00465732
22 *1:13 *703:17 0.00368598
23 *1:13 *704:21 0.00444172
24 *1:13 *706:13 0.00407505
25 *1:13 *717:17 0.00168354
26 *1:17 *425:21 0
*RES
1 io_in[0] *1:5 571.012 
2 *1:5 *1:7 4.5 
3 *1:7 *1:9 381.52 
4 *1:9 *1:11 4.5 
5 *1:11 *1:13 73.0355 
6 *1:13 *1:15 4.5 
7 *1:15 *1:17 288.76 
8 *1:17 *820:io_in_0 33.596 
*END

*D_NET *2 1.44871
*CONN
*P io_in[10] I
*I *826:io_in[5] I *D wrapped_tholin_riscv
*I *819:io_in[5] I *D wrapped_mc14500
*I *821:io_in[5] I *D wrapped_sid
*I *825:io_in_1[5] I *D wrapped_sn76489
*I *824:io_in[5] I *D wrapped_qcpu
*I *823:io_in[5] I *D wrapped_pdp11
*I *816:io_in_1[5] I *D wrapped_ay8913
*I *822:io_in[5] I *D tholin_avalonsemi_tbb1143
*CAP
1 io_in[10] 0.0044093
2 *826:io_in[5] 0.000508102
3 *819:io_in[5] 0.00434041
4 *821:io_in[5] 0.00195694
5 *825:io_in_1[5] 0.000111418
6 *824:io_in[5] 0.00180283
7 *823:io_in[5] 0.00196705
8 *816:io_in_1[5] 0.000826481
9 *822:io_in[5] 0.000184734
10 *2:171 0.00220314
11 *2:161 0.00721164
12 *2:157 0.00737341
13 *2:155 0.00916698
14 *2:139 0.0179986
15 *2:137 0.0160416
16 *2:135 0.00117986
17 *2:133 0.00173812
18 *2:121 0.00100739
19 *2:117 0.00821403
20 *2:115 0.00831582
21 *2:107 0.0084126
22 *2:103 0.00549364
23 *2:85 0.00556646
24 *2:77 0.00546645
25 *2:67 0.0013556
26 *2:65 0.00014308
27 *2:63 0.00699042
28 *2:61 0.00699042
29 *2:45 0.000927309
30 *2:39 0.0111446
31 *2:37 0.0110438
32 *2:35 0.0068495
33 *2:33 0.0068495
34 *2:25 0.00153874
35 *2:21 0.00319804
36 *2:19 0.00184403
37 *2:17 0.00793073
38 *2:15 0.0102152
39 *2:11 0.0417293
40 *2:9 0.0458212
41 *821:io_in[5] *821:io_in[3] 0.00778083
42 *821:io_in[5] *821:io_in[6] 0.0104519
43 *821:io_in[5] *31:9 0
44 *821:io_in[5] *372:13 0
45 *824:io_in[5] *37:95 0
46 *2:9 *77:17 0.00130151
47 *2:11 *77:17 0.0301936
48 *2:11 *78:15 0
49 *2:11 *80:15 0
50 *2:11 *81:15 0
51 *2:11 *531:17 0.0197037
52 *2:11 *538:17 0.00330193
53 *2:11 *580:13 0.00579629
54 *2:11 *807:9 0.15812
55 *2:15 *41:13 0.00011832
56 *2:15 *78:15 0.00100227
57 *2:17 *41:13 0.00238607
58 *2:17 *76:13 0
59 *2:17 *78:15 0.0126432
60 *2:21 *35:137 0.0329037
61 *2:21 *46:9 0.040217
62 *2:21 *58:9 0.00141335
63 *2:21 *745:11 0.00126236
64 *2:35 *52:9 0
65 *2:35 *500:13 0.0418783
66 *2:35 *712:23 0.000764372
67 *2:39 *66:5 0.0173841
68 *2:39 *313:34 0
69 *2:39 *481:35 0.00518783
70 *2:45 *433:17 0.0149876
71 *2:45 *437:13 0.0149968
72 *2:63 *3:77 0.0521054
73 *2:63 *37:75 2.46555e-05
74 *2:63 *38:97 0.171674
75 *2:67 *3:81 0.0592404
76 *2:67 *38:101 0.0614691
77 *2:67 *73:29 0.000112348
78 *2:67 *761:6 0.000409596
79 *2:67 *774:11 0.00010938
80 *2:77 *3:93 0.00243454
81 *2:77 *71:29 0.000531238
82 *2:77 *621:9 0.00623696
83 *2:77 *652:13 0.000277657
84 *2:85 *824:io_in[15] 0
85 *2:85 *3:101 0.00777425
86 *2:85 *24:71 0.00095337
87 *2:85 *38:113 0.000363382
88 *2:103 *11:105 0.0024677
89 *2:103 *22:79 7.67629e-05
90 *2:103 *50:21 0.000635876
91 *2:103 *61:24 0.0028261
92 *2:103 *595:11 0.00720438
93 *2:103 *620:9 0.00720438
94 *2:107 *3:127 0.0446066
95 *2:107 *4:155 0.000164551
96 *2:107 *25:55 0
97 *2:107 *617:17 0.00399083
98 *2:115 *3:135 0.00100226
99 *2:115 *3:171 3.05177e-05
100 *2:115 *4:149 0.000218987
101 *2:115 *473:13 0.00012395
102 *2:115 *640:18 2.46957e-05
103 *2:117 *3:137 0.0401654
104 *2:117 *38:127 0.000640138
105 *2:117 *450:71 0.000735527
106 *2:133 *3:151 0.00111463
107 *2:135 *3:151 0.0189326
108 *2:135 *34:49 0.000158546
109 *2:135 *37:117 0.0147554
110 *2:139 *36:49 0.0988124
111 *2:139 *358:9 0.000342621
112 *2:155 *3:171 0.00251089
113 *2:157 *3:173 0
114 *2:157 *35:67 0
115 *2:157 *600:17 0
116 *2:157 *666:13 0.00408895
117 *2:157 *677:31 0.0395985
118 *2:161 *9:91 1.57479e-05
119 *2:161 *463:9 0.00113703
120 *2:161 *754:13 0.0171025
121 *2:161 *760:13 0.0135149
122 *2:171 *9:91 0.00382604
123 *2:171 *463:9 0.00331263
124 *2:171 *754:13 0.0320467
125 *2:171 *760:13 0.0117409
*RES
1 io_in[10] *2:9 36.868 
2 *2:9 *2:11 655.512 
3 *2:11 *2:15 3.952 
4 *2:15 *2:17 76.856 
5 *2:17 *2:19 4.5 
6 *2:19 *2:21 104.728 
7 *2:21 *2:25 12.508 
8 *2:25 *822:io_in[5] 1.092 
9 *2:25 *2:33 4.5 
10 *2:33 *2:35 108.056 
11 *2:35 *2:37 4.5 
12 *2:37 *2:39 154.44 
13 *2:39 *2:45 47.584 
14 *2:45 *816:io_in_1[5] 6.5 
15 *2:15 *823:io_in[5] 18.488 
16 *2:9 *2:61 4.5 
17 *2:61 *2:63 441.896 
18 *2:63 *2:65 4.5 
19 *2:65 *2:67 153.192 
20 *2:67 *2:77 33.468 
21 *2:77 *2:85 49.144 
22 *2:85 *824:io_in[5] 7.748 
23 *824:io_in[5] *2:103 40.5511 
24 *2:103 *2:107 44.5718 
25 *2:107 *2:115 13.7209 
26 *2:115 *2:117 115.128 
27 *2:117 *2:121 7.308 
28 *2:121 *825:io_in_1[5] 0.676 
29 *2:121 *2:133 11.884 
30 *2:133 *2:135 52.624 
31 *2:135 *2:137 4.5 
32 *2:137 *2:139 254.488 
33 *2:139 *821:io_in[5] 45.972 
34 *2:107 *2:155 24.8431 
35 *2:155 *2:157 100.152 
36 *2:157 *2:161 49.532 
37 *2:161 *819:io_in[5] 26.6 
38 *2:161 *2:171 82.472 
39 *2:171 *826:io_in[5] 7.048 
*END

*D_NET *3 1.24648
*CONN
*P io_in[11] I
*I *826:io_in[6] I *D wrapped_tholin_riscv
*I *819:io_in[6] I *D wrapped_mc14500
*I *821:io_in[6] I *D wrapped_sid
*I *825:io_in_1[6] I *D wrapped_sn76489
*I *824:io_in[6] I *D wrapped_qcpu
*I *823:io_in[6] I *D wrapped_pdp11
*I *816:io_in_1[6] I *D wrapped_ay8913
*I *822:clk I *D tholin_avalonsemi_tbb1143
*CAP
1 io_in[11] 0.00210557
2 *826:io_in[6] 0.000259901
3 *819:io_in[6] 0.00507498
4 *821:io_in[6] 0.00289559
5 *825:io_in_1[6] 0.000602903
6 *824:io_in[6] 0.000177282
7 *823:io_in[6] 0.00106778
8 *816:io_in_1[6] 0.00320483
9 *822:clk 0.00229089
10 *3:191 0.00342249
11 *3:189 0.00316259
12 *3:181 0.0052441
13 *3:177 0.00231382
14 *3:175 0.00214469
15 *3:173 0.00592283
16 *3:171 0.00877908
17 *3:155 0.0271034
18 *3:153 0.0242078
19 *3:151 0.00461078
20 *3:149 0.00479203
21 *3:137 0.00268364
22 *3:135 0.00271454
23 *3:127 0.00435622
24 *3:121 0.00390267
25 *3:101 0.00495793
26 *3:93 0.00582301
27 *3:81 0.00566888
28 *3:79 0.00177126
29 *3:77 0.0314982
30 *3:75 0.0314982
31 *3:53 0.0143785
32 *3:51 0.0111737
33 *3:49 0.013007
34 *3:47 0.0134279
35 *3:33 0.0169062
36 *3:31 0.0150362
37 *3:29 0.00695123
38 *3:27 0.00962431
39 *3:23 0.00379849
40 *3:19 0.0876825
41 *3:17 0.0882564
42 *3:13 0.00232381
43 *3:9 0.009222
44 *3:7 0.00963529
45 *819:io_in[6] *826:custom_settings[0] 7.09119e-05
46 *821:io_in[6] *31:9 0.000806027
47 *821:io_in[6] *372:13 0
48 *822:clk *820:sid_oeb 0.000516228
49 *822:clk *686:13 0
50 *826:io_in[6] *19:75 0.00024696
51 *3:13 *75:27 0.000961175
52 *3:17 *75:27 0.000266842
53 *3:19 *5:13 0
54 *3:19 *9:29 0.00913895
55 *3:19 *75:27 0
56 *3:19 *453:18 0.00481512
57 *3:19 *554:15 0.172137
58 *3:19 *563:13 0.0123001
59 *3:29 *37:31 0
60 *3:29 *93:11 0.0252981