*SPEF "ieee 1481-1999"
*DESIGN "user_project_wrapper"
*DATE "11:11:11 Fri 11 11, 1111"
*VENDOR "OpenRCX"
*PROGRAM "Parallel Extraction"
*VERSION "1.0"
*DESIGN_FLOW "NAME_SCOPE LOCAL" "PIN_CAP NONE"
*DIVIDER /
*DELIMITER :
*BUS_DELIMITER []
*T_UNIT 1 NS
*C_UNIT 1 PF
*R_UNIT 1 OHM
*L_UNIT 1 HENRY

*NAME_MAP
*1 io_in[0]
*2 io_in[10]
*3 io_in[11]
*4 io_in[12]
*5 io_in[13]
*6 io_in[14]
*7 io_in[15]
*8 io_in[16]
*9 io_in[17]
*10 io_in[18]
*11 io_in[19]
*12 io_in[1]
*13 io_in[20]
*14 io_in[21]
*15 io_in[22]
*16 io_in[23]
*17 io_in[24]
*18 io_in[25]
*19 io_in[26]
*20 io_in[27]
*21 io_in[28]
*22 io_in[29]
*23 io_in[2]
*24 io_in[30]
*25 io_in[31]
*26 io_in[32]
*27 io_in[33]
*28 io_in[34]
*29 io_in[35]
*30 io_in[36]
*31 io_in[37]
*32 io_in[3]
*33 io_in[4]
*34 io_in[5]
*35 io_in[6]
*36 io_in[7]
*37 io_in[8]
*38 io_in[9]
*39 io_oeb[0]
*40 io_oeb[10]
*41 io_oeb[11]
*42 io_oeb[12]
*43 io_oeb[13]
*44 io_oeb[14]
*45 io_oeb[15]
*46 io_oeb[16]
*47 io_oeb[17]
*48 io_oeb[18]
*49 io_oeb[19]
*50 io_oeb[1]
*51 io_oeb[20]
*52 io_oeb[21]
*53 io_oeb[22]
*54 io_oeb[23]
*55 io_oeb[24]
*56 io_oeb[25]
*57 io_oeb[26]
*58 io_oeb[27]
*59 io_oeb[28]
*60 io_oeb[29]
*61 io_oeb[2]
*62 io_oeb[30]
*63 io_oeb[31]
*64 io_oeb[32]
*65 io_oeb[33]
*66 io_oeb[34]
*67 io_oeb[35]
*68 io_oeb[36]
*69 io_oeb[37]
*70 io_oeb[3]
*71 io_oeb[4]
*72 io_oeb[5]
*73 io_oeb[6]
*74 io_oeb[7]
*75 io_oeb[8]
*76 io_oeb[9]
*77 io_out[0]
*78 io_out[10]
*79 io_out[11]
*80 io_out[12]
*81 io_out[13]
*82 io_out[14]
*83 io_out[15]
*84 io_out[16]
*85 io_out[17]
*86 io_out[18]
*87 io_out[19]
*88 io_out[1]
*89 io_out[20]
*90 io_out[21]
*91 io_out[22]
*92 io_out[23]
*93 io_out[24]
*94 io_out[25]
*95 io_out[26]
*96 io_out[27]
*97 io_out[28]
*98 io_out[29]
*99 io_out[2]
*100 io_out[30]
*101 io_out[31]
*102 io_out[32]
*103 io_out[33]
*104 io_out[34]
*105 io_out[35]
*106 io_out[36]
*107 io_out[37]
*108 io_out[3]
*109 io_out[4]
*110 io_out[5]
*111 io_out[6]
*112 io_out[7]
*113 io_out[8]
*114 io_out[9]
*115 la_data_in[0]
*116 la_data_in[10]
*117 la_data_in[11]
*118 la_data_in[12]
*119 la_data_in[13]
*120 la_data_in[14]
*121 la_data_in[15]
*122 la_data_in[16]
*123 la_data_in[17]
*124 la_data_in[18]
*125 la_data_in[19]
*126 la_data_in[1]
*127 la_data_in[20]
*128 la_data_in[21]
*129 la_data_in[22]
*130 la_data_in[23]
*131 la_data_in[24]
*132 la_data_in[25]
*133 la_data_in[26]
*134 la_data_in[27]
*135 la_data_in[28]
*136 la_data_in[29]
*137 la_data_in[2]
*138 la_data_in[30]
*139 la_data_in[31]
*140 la_data_in[32]
*141 la_data_in[33]
*142 la_data_in[34]
*143 la_data_in[35]
*144 la_data_in[36]
*145 la_data_in[37]
*146 la_data_in[38]
*147 la_data_in[39]
*148 la_data_in[3]
*149 la_data_in[40]
*150 la_data_in[41]
*151 la_data_in[42]
*152 la_data_in[43]
*153 la_data_in[44]
*154 la_data_in[45]
*155 la_data_in[46]
*156 la_data_in[47]
*157 la_data_in[48]
*158 la_data_in[49]
*159 la_data_in[4]
*160 la_data_in[50]
*161 la_data_in[51]
*162 la_data_in[52]
*163 la_data_in[53]
*164 la_data_in[54]
*165 la_data_in[55]
*166 la_data_in[56]
*167 la_data_in[57]
*168 la_data_in[58]
*169 la_data_in[59]
*170 la_data_in[5]
*171 la_data_in[60]
*172 la_data_in[61]
*173 la_data_in[62]
*174 la_data_in[63]
*175 la_data_in[6]
*176 la_data_in[7]
*177 la_data_in[8]
*178 la_data_in[9]
*179 la_data_out[0]
*180 la_data_out[10]
*181 la_data_out[11]
*182 la_data_out[12]
*183 la_data_out[13]
*184 la_data_out[14]
*185 la_data_out[15]
*186 la_data_out[16]
*187 la_data_out[17]
*188 la_data_out[18]
*189 la_data_out[19]
*190 la_data_out[1]
*191 la_data_out[20]
*192 la_data_out[21]
*193 la_data_out[22]
*194 la_data_out[23]
*195 la_data_out[24]
*196 la_data_out[25]
*197 la_data_out[26]
*198 la_data_out[27]
*199 la_data_out[28]
*200 la_data_out[29]
*201 la_data_out[2]
*202 la_data_out[30]
*203 la_data_out[31]
*204 la_data_out[32]
*205 la_data_out[33]
*206 la_data_out[34]
*207 la_data_out[35]
*208 la_data_out[36]
*209 la_data_out[37]
*210 la_data_out[38]
*211 la_data_out[39]
*212 la_data_out[3]
*213 la_data_out[40]
*214 la_data_out[41]
*215 la_data_out[42]
*216 la_data_out[43]
*217 la_data_out[44]
*218 la_data_out[45]
*219 la_data_out[46]
*220 la_data_out[47]
*221 la_data_out[48]
*222 la_data_out[49]
*223 la_data_out[4]
*224 la_data_out[50]
*225 la_data_out[51]
*226 la_data_out[52]
*227 la_data_out[53]
*228 la_data_out[54]
*229 la_data_out[55]
*230 la_data_out[56]
*231 la_data_out[57]
*232 la_data_out[58]
*233 la_data_out[59]
*234 la_data_out[5]
*235 la_data_out[60]
*236 la_data_out[61]
*237 la_data_out[62]
*238 la_data_out[63]
*239 la_data_out[6]
*240 la_data_out[7]
*241 la_data_out[8]
*242 la_data_out[9]
*243 la_oenb[0]
*244 la_oenb[10]
*245 la_oenb[11]
*246 la_oenb[12]
*247 la_oenb[13]
*248 la_oenb[14]
*249 la_oenb[15]
*250 la_oenb[16]
*251 la_oenb[17]
*252 la_oenb[18]
*253 la_oenb[19]
*254 la_oenb[1]
*255 la_oenb[20]
*256 la_oenb[21]
*257 la_oenb[22]
*258 la_oenb[23]
*259 la_oenb[24]
*260 la_oenb[25]
*261 la_oenb[26]
*262 la_oenb[27]
*263 la_oenb[28]
*264 la_oenb[29]
*265 la_oenb[2]
*266 la_oenb[30]
*267 la_oenb[31]
*268 la_oenb[32]
*269 la_oenb[33]
*270 la_oenb[34]
*271 la_oenb[35]
*272 la_oenb[36]
*273 la_oenb[37]
*274 la_oenb[38]
*275 la_oenb[39]
*276 la_oenb[3]
*277 la_oenb[40]
*278 la_oenb[41]
*279 la_oenb[42]
*280 la_oenb[43]
*281 la_oenb[44]
*282 la_oenb[45]
*283 la_oenb[46]
*284 la_oenb[47]
*285 la_oenb[48]
*286 la_oenb[49]
*287 la_oenb[4]
*288 la_oenb[50]
*289 la_oenb[51]
*290 la_oenb[52]
*291 la_oenb[53]
*292 la_oenb[54]
*293 la_oenb[55]
*294 la_oenb[56]
*295 la_oenb[57]
*296 la_oenb[58]
*297 la_oenb[59]
*298 la_oenb[5]
*299 la_oenb[60]
*300 la_oenb[61]
*301 la_oenb[62]
*302 la_oenb[63]
*303 la_oenb[6]
*304 la_oenb[7]
*305 la_oenb[8]
*306 la_oenb[9]
*307 user_clock2
*308 user_irq[0]
*309 user_irq[1]
*310 user_irq[2]
*313 wb_clk_i
*314 wb_rst_i
*315 wbs_ack_o
*316 wbs_adr_i[0]
*317 wbs_adr_i[10]
*318 wbs_adr_i[11]
*319 wbs_adr_i[12]
*320 wbs_adr_i[13]
*321 wbs_adr_i[14]
*322 wbs_adr_i[15]
*323 wbs_adr_i[16]
*324 wbs_adr_i[17]
*325 wbs_adr_i[18]
*326 wbs_adr_i[19]
*327 wbs_adr_i[1]
*328 wbs_adr_i[20]
*329 wbs_adr_i[21]
*330 wbs_adr_i[22]
*331 wbs_adr_i[23]
*332 wbs_adr_i[24]
*333 wbs_adr_i[25]
*334 wbs_adr_i[26]
*335 wbs_adr_i[27]
*336 wbs_adr_i[28]
*337 wbs_adr_i[29]
*338 wbs_adr_i[2]
*339 wbs_adr_i[30]
*340 wbs_adr_i[31]
*341 wbs_adr_i[3]
*342 wbs_adr_i[4]
*343 wbs_adr_i[5]
*344 wbs_adr_i[6]
*345 wbs_adr_i[7]
*346 wbs_adr_i[8]
*347 wbs_adr_i[9]
*348 wbs_cyc_i
*349 wbs_dat_i[0]
*350 wbs_dat_i[10]
*351 wbs_dat_i[11]
*352 wbs_dat_i[12]
*353 wbs_dat_i[13]
*354 wbs_dat_i[14]
*355 wbs_dat_i[15]
*356 wbs_dat_i[16]
*357 wbs_dat_i[17]
*358 wbs_dat_i[18]
*359 wbs_dat_i[19]
*360 wbs_dat_i[1]
*361 wbs_dat_i[20]
*362 wbs_dat_i[21]
*363 wbs_dat_i[22]
*364 wbs_dat_i[23]
*365 wbs_dat_i[24]
*366 wbs_dat_i[25]
*367 wbs_dat_i[26]
*368 wbs_dat_i[27]
*369 wbs_dat_i[28]
*370 wbs_dat_i[29]
*371 wbs_dat_i[2]
*372 wbs_dat_i[30]
*373 wbs_dat_i[31]
*374 wbs_dat_i[3]
*375 wbs_dat_i[4]
*376 wbs_dat_i[5]
*377 wbs_dat_i[6]
*378 wbs_dat_i[7]
*379 wbs_dat_i[8]
*380 wbs_dat_i[9]
*381 wbs_dat_o[0]
*382 wbs_dat_o[10]
*383 wbs_dat_o[11]
*384 wbs_dat_o[12]
*385 wbs_dat_o[13]
*386 wbs_dat_o[14]
*387 wbs_dat_o[15]
*388 wbs_dat_o[16]
*389 wbs_dat_o[17]
*390 wbs_dat_o[18]
*391 wbs_dat_o[19]
*392 wbs_dat_o[1]
*393 wbs_dat_o[20]
*394 wbs_dat_o[21]
*395 wbs_dat_o[22]
*396 wbs_dat_o[23]
*397 wbs_dat_o[24]
*398 wbs_dat_o[25]
*399 wbs_dat_o[26]
*400 wbs_dat_o[27]
*401 wbs_dat_o[28]
*402 wbs_dat_o[29]
*403 wbs_dat_o[2]
*404 wbs_dat_o[30]
*405 wbs_dat_o[31]
*406 wbs_dat_o[3]
*407 wbs_dat_o[4]
*408 wbs_dat_o[5]
*409 wbs_dat_o[6]
*410 wbs_dat_o[7]
*411 wbs_dat_o[8]
*412 wbs_dat_o[9]
*413 wbs_sel_i[0]
*414 wbs_sel_i[1]
*415 wbs_sel_i[2]
*416 wbs_sel_i[3]
*417 wbs_stb_i
*418 wbs_we_i
*419 ay8913_do\[0\]
*420 ay8913_do\[10\]
*421 ay8913_do\[11\]
*422 ay8913_do\[12\]
*423 ay8913_do\[13\]
*424 ay8913_do\[14\]
*425 ay8913_do\[15\]
*426 ay8913_do\[16\]
*427 ay8913_do\[17\]
*428 ay8913_do\[18\]
*429 ay8913_do\[19\]
*430 ay8913_do\[1\]
*431 ay8913_do\[20\]
*432 ay8913_do\[21\]
*433 ay8913_do\[22\]
*434 ay8913_do\[23\]
*435 ay8913_do\[24\]
*436 ay8913_do\[25\]
*437 ay8913_do\[26\]
*438 ay8913_do\[27\]
*439 ay8913_do\[2\]
*440 ay8913_do\[3\]
*441 ay8913_do\[4\]
*442 ay8913_do\[5\]
*443 ay8913_do\[6\]
*444 ay8913_do\[7\]
*445 ay8913_do\[8\]
*446 ay8913_do\[9\]
*447 blinker_do\[0\]
*448 blinker_do\[1\]
*449 blinker_do\[2\]
*450 custom_settings\[0\]
*451 custom_settings\[10\]
*452 custom_settings\[11\]
*453 custom_settings\[12\]
*454 custom_settings\[13\]
*455 custom_settings\[14\]
*456 custom_settings\[15\]
*457 custom_settings\[16\]
*458 custom_settings\[17\]
*459 custom_settings\[18\]
*460 custom_settings\[19\]
*461 custom_settings\[1\]
*462 custom_settings\[20\]
*463 custom_settings\[21\]
*464 custom_settings\[22\]
*465 custom_settings\[23\]
*466 custom_settings\[24\]
*467 custom_settings\[25\]
*468 custom_settings\[26\]
*469 custom_settings\[27\]
*470 custom_settings\[28\]
*471 custom_settings\[29\]
*472 custom_settings\[2\]
*473 custom_settings\[30\]
*474 custom_settings\[31\]
*475 custom_settings\[3\]
*476 custom_settings\[4\]
*477 custom_settings\[5\]
*478 custom_settings\[6\]
*479 custom_settings\[7\]
*480 custom_settings\[8\]
*481 custom_settings\[9\]
*482 mc14500_do\[0\]
*483 mc14500_do\[10\]
*484 mc14500_do\[11\]
*485 mc14500_do\[12\]
*486 mc14500_do\[13\]
*487 mc14500_do\[14\]
*488 mc14500_do\[15\]
*489 mc14500_do\[16\]
*490 mc14500_do\[17\]
*491 mc14500_do\[18\]
*492 mc14500_do\[19\]
*493 mc14500_do\[1\]
*494 mc14500_do\[20\]
*495 mc14500_do\[21\]
*496 mc14500_do\[22\]
*497 mc14500_do\[23\]
*498 mc14500_do\[24\]
*499 mc14500_do\[25\]
*500 mc14500_do\[26\]
*501 mc14500_do\[27\]
*502 mc14500_do\[28\]
*503 mc14500_do\[29\]
*504 mc14500_do\[2\]
*505 mc14500_do\[30\]
*506 mc14500_do\[3\]
*507 mc14500_do\[4\]
*508 mc14500_do\[5\]
*509 mc14500_do\[6\]
*510 mc14500_do\[7\]
*511 mc14500_do\[8\]
*512 mc14500_do\[9\]
*513 mc14500_sram_addr\[0\]
*514 mc14500_sram_addr\[1\]
*515 mc14500_sram_addr\[2\]
*516 mc14500_sram_addr\[3\]
*517 mc14500_sram_addr\[4\]
*518 mc14500_sram_addr\[5\]
*519 mc14500_sram_gwe
*520 mc14500_sram_in\[0\]
*521 mc14500_sram_in\[1\]
*522 mc14500_sram_in\[2\]
*523 mc14500_sram_in\[3\]
*524 mc14500_sram_in\[4\]
*525 mc14500_sram_in\[5\]
*526 mc14500_sram_in\[6\]
*527 mc14500_sram_in\[7\]
*528 qcpu_do\[0\]
*529 qcpu_do\[10\]
*530 qcpu_do\[11\]
*531 qcpu_do\[12\]
*532 qcpu_do\[13\]
*533 qcpu_do\[14\]
*534 qcpu_do\[15\]
*535 qcpu_do\[16\]
*536 qcpu_do\[17\]
*537 qcpu_do\[18\]
*538 qcpu_do\[19\]
*539 qcpu_do\[1\]
*540 qcpu_do\[20\]
*541 qcpu_do\[21\]
*542 qcpu_do\[22\]
*543 qcpu_do\[23\]
*544 qcpu_do\[24\]
*545 qcpu_do\[25\]
*546 qcpu_do\[26\]
*547 qcpu_do\[27\]
*548 qcpu_do\[28\]
*549 qcpu_do\[29\]
*550 qcpu_do\[2\]
*551 qcpu_do\[30\]
*552 qcpu_do\[31\]
*553 qcpu_do\[32\]
*554 qcpu_do\[3\]
*555 qcpu_do\[4\]
*556 qcpu_do\[5\]
*557 qcpu_do\[6\]
*558 qcpu_do\[7\]
*559 qcpu_do\[8\]
*560 qcpu_do\[9\]
*561 qcpu_oeb\[0\]
*562 qcpu_oeb\[10\]
*563 qcpu_oeb\[11\]
*564 qcpu_oeb\[12\]
*565 qcpu_oeb\[13\]
*566 qcpu_oeb\[14\]
*567 qcpu_oeb\[15\]
*568 qcpu_oeb\[16\]
*569 qcpu_oeb\[17\]
*570 qcpu_oeb\[18\]
*571 qcpu_oeb\[19\]
*572 qcpu_oeb\[1\]
*573 qcpu_oeb\[20\]
*574 qcpu_oeb\[21\]
*575 qcpu_oeb\[22\]
*576 qcpu_oeb\[23\]
*577 qcpu_oeb\[24\]
*578 qcpu_oeb\[25\]
*579 qcpu_oeb\[26\]
*580 qcpu_oeb\[27\]
*581 qcpu_oeb\[28\]
*582 qcpu_oeb\[29\]
*583 qcpu_oeb\[2\]
*584 qcpu_oeb\[30\]
*585 qcpu_oeb\[31\]
*586 qcpu_oeb\[32\]
*587 qcpu_oeb\[3\]
*588 qcpu_oeb\[4\]
*589 qcpu_oeb\[5\]
*590 qcpu_oeb\[6\]
*591 qcpu_oeb\[7\]
*592 qcpu_oeb\[8\]
*593 qcpu_oeb\[9\]
*594 qcpu_sram_addr\[0\]
*595 qcpu_sram_addr\[1\]
*596 qcpu_sram_addr\[2\]
*597 qcpu_sram_addr\[3\]
*598 qcpu_sram_addr\[4\]
*599 qcpu_sram_addr\[5\]
*600 qcpu_sram_gwe
*601 qcpu_sram_in\[0\]
*602 qcpu_sram_in\[1\]
*603 qcpu_sram_in\[2\]
*604 qcpu_sram_in\[3\]
*605 qcpu_sram_in\[4\]
*606 qcpu_sram_in\[5\]
*607 qcpu_sram_in\[6\]
*608 qcpu_sram_in\[7\]
*609 qcpu_sram_out\[0\]
*610 qcpu_sram_out\[1\]
*611 qcpu_sram_out\[2\]
*612 qcpu_sram_out\[3\]
*613 qcpu_sram_out\[4\]
*614 qcpu_sram_out\[5\]
*615 qcpu_sram_out\[6\]
*616 qcpu_sram_out\[7\]
*617 rst_ay8913
*618 rst_blinker
*619 rst_mc14500
*620 rst_qcpu
*621 rst_sid
*622 rst_sn76489
*623 sid_do\[0\]
*624 sid_do\[10\]
*625 sid_do\[11\]
*626 sid_do\[12\]
*627 sid_do\[13\]
*628 sid_do\[14\]
*629 sid_do\[15\]
*630 sid_do\[16\]
*631 sid_do\[17\]
*632 sid_do\[18\]
*633 sid_do\[19\]
*634 sid_do\[1\]
*635 sid_do\[20\]
*636 sid_do\[2\]
*637 sid_do\[3\]
*638 sid_do\[4\]
*639 sid_do\[5\]
*640 sid_do\[6\]
*641 sid_do\[7\]
*642 sid_do\[8\]
*643 sid_do\[9\]
*644 sid_oeb
*645 sn76489_do\[0\]
*646 sn76489_do\[10\]
*647 sn76489_do\[11\]
*648 sn76489_do\[12\]
*649 sn76489_do\[13\]
*650 sn76489_do\[14\]
*651 sn76489_do\[15\]
*652 sn76489_do\[16\]
*653 sn76489_do\[17\]
*654 sn76489_do\[18\]
*655 sn76489_do\[19\]
*656 sn76489_do\[1\]
*657 sn76489_do\[20\]
*658 sn76489_do\[21\]
*659 sn76489_do\[22\]
*660 sn76489_do\[23\]
*661 sn76489_do\[24\]
*662 sn76489_do\[25\]
*663 sn76489_do\[26\]
*664 sn76489_do\[27\]
*665 sn76489_do\[2\]
*666 sn76489_do\[3\]
*667 sn76489_do\[4\]
*668 sn76489_do\[5\]
*669 sn76489_do\[6\]
*670 sn76489_do\[7\]
*671 sn76489_do\[8\]
*672 sn76489_do\[9\]
*673 avali_logo
*674 ay8913
*675 blinker
*676 mc14500
*677 multiplexer
*678 sid
*679 wrapped_qcpu
*680 wrapped_sn76489

*PORTS
io_in[0] I
io_in[10] I
io_in[11] I
io_in[12] I
io_in[13] I
io_in[14] I
io_in[15] I
io_in[16] I
io_in[17] I
io_in[18] I
io_in[19] I
io_in[1] I
io_in[20] I
io_in[21] I
io_in[22] I
io_in[23] I
io_in[24] I
io_in[25] I
io_in[26] I
io_in[27] I
io_in[28] I
io_in[29] I
io_in[2] I
io_in[30] I
io_in[31] I
io_in[32] I
io_in[33] I
io_in[34] I
io_in[35] I
io_in[36] I
io_in[37] I
io_in[3] I
io_in[4] I
io_in[5] I
io_in[6] I
io_in[7] I
io_in[8] I
io_in[9] I
io_oeb[0] O
io_oeb[10] O
io_oeb[11] O
io_oeb[12] O
io_oeb[13] O
io_oeb[14] O
io_oeb[15] O
io_oeb[16] O
io_oeb[17] O
io_oeb[18] O
io_oeb[19] O
io_oeb[1] O
io_oeb[20] O
io_oeb[21] O
io_oeb[22] O
io_oeb[23] O
io_oeb[24] O
io_oeb[25] O
io_oeb[26] O
io_oeb[27] O
io_oeb[28] O
io_oeb[29] O
io_oeb[2] O
io_oeb[30] O
io_oeb[31] O
io_oeb[32] O
io_oeb[33] O
io_oeb[34] O
io_oeb[35] O
io_oeb[36] O
io_oeb[37] O
io_oeb[3] O
io_oeb[4] O
io_oeb[5] O
io_oeb[6] O
io_oeb[7] O
io_oeb[8] O
io_oeb[9] O
io_out[0] O
io_out[10] O
io_out[11] O
io_out[12] O
io_out[13] O
io_out[14] O
io_out[15] O
io_out[16] O
io_out[17] O
io_out[18] O
io_out[19] O
io_out[1] O
io_out[20] O
io_out[21] O
io_out[22] O
io_out[23] O
io_out[24] O
io_out[25] O
io_out[26] O
io_out[27] O
io_out[28] O
io_out[29] O
io_out[2] O
io_out[30] O
io_out[31] O
io_out[32] O
io_out[33] O
io_out[34] O
io_out[35] O
io_out[36] O
io_out[37] O
io_out[3] O
io_out[4] O
io_out[5] O
io_out[6] O
io_out[7] O
io_out[8] O
io_out[9] O
la_data_in[0] I
la_data_in[10] I
la_data_in[11] I
la_data_in[12] I
la_data_in[13] I
la_data_in[14] I
la_data_in[15] I
la_data_in[16] I
la_data_in[17] I
la_data_in[18] I
la_data_in[19] I
la_data_in[1] I
la_data_in[20] I
la_data_in[21] I
la_data_in[22] I
la_data_in[23] I
la_data_in[24] I
la_data_in[25] I
la_data_in[26] I
la_data_in[27] I
la_data_in[28] I
la_data_in[29] I
la_data_in[2] I
la_data_in[30] I
la_data_in[31] I
la_data_in[32] I
la_data_in[33] I
la_data_in[34] I
la_data_in[35] I
la_data_in[36] I
la_data_in[37] I
la_data_in[38] I
la_data_in[39] I
la_data_in[3] I
la_data_in[40] I
la_data_in[41] I
la_data_in[42] I
la_data_in[43] I
la_data_in[44] I
la_data_in[45] I
la_data_in[46] I
la_data_in[47] I
la_data_in[48] I
la_data_in[49] I
la_data_in[4] I
la_data_in[50] I
la_data_in[51] I
la_data_in[52] I
la_data_in[53] I
la_data_in[54] I
la_data_in[55] I
la_data_in[56] I
la_data_in[57] I
la_data_in[58] I
la_data_in[59] I
la_data_in[5] I
la_data_in[60] I
la_data_in[61] I
la_data_in[62] I
la_data_in[63] I
la_data_in[6] I
la_data_in[7] I
la_data_in[8] I
la_data_in[9] I
la_data_out[0] O
la_data_out[10] O
la_data_out[11] O
la_data_out[12] O
la_data_out[13] O
la_data_out[14] O
la_data_out[15] O
la_data_out[16] O
la_data_out[17] O
la_data_out[18] O
la_data_out[19] O
la_data_out[1] O
la_data_out[20] O
la_data_out[21] O
la_data_out[22] O
la_data_out[23] O
la_data_out[24] O
la_data_out[25] O
la_data_out[26] O
la_data_out[27] O
la_data_out[28] O
la_data_out[29] O
la_data_out[2] O
la_data_out[30] O
la_data_out[31] O
la_data_out[32] O
la_data_out[33] O
la_data_out[34] O
la_data_out[35] O
la_data_out[36] O
la_data_out[37] O
la_data_out[38] O
la_data_out[39] O
la_data_out[3] O
la_data_out[40] O
la_data_out[41] O
la_data_out[42] O
la_data_out[43] O
la_data_out[44] O
la_data_out[45] O
la_data_out[46] O
la_data_out[47] O
la_data_out[48] O
la_data_out[49] O
la_data_out[4] O
la_data_out[50] O
la_data_out[51] O
la_data_out[52] O
la_data_out[53] O
la_data_out[54] O
la_data_out[55] O
la_data_out[56] O
la_data_out[57] O
la_data_out[58] O
la_data_out[59] O
la_data_out[5] O
la_data_out[60] O
la_data_out[61] O
la_data_out[62] O
la_data_out[63] O
la_data_out[6] O
la_data_out[7] O
la_data_out[8] O
la_data_out[9] O
la_oenb[0] I
la_oenb[10] I
la_oenb[11] I
la_oenb[12] I
la_oenb[13] I
la_oenb[14] I
la_oenb[15] I
la_oenb[16] I
la_oenb[17] I
la_oenb[18] I
la_oenb[19] I
la_oenb[1] I
la_oenb[20] I
la_oenb[21] I
la_oenb[22] I
la_oenb[23] I
la_oenb[24] I
la_oenb[25] I
la_oenb[26] I
la_oenb[27] I
la_oenb[28] I
la_oenb[29] I
la_oenb[2] I
la_oenb[30] I
la_oenb[31] I
la_oenb[32] I
la_oenb[33] I
la_oenb[34] I
la_oenb[35] I
la_oenb[36] I
la_oenb[37] I
la_oenb[38] I
la_oenb[39] I
la_oenb[3] I
la_oenb[40] I
la_oenb[41] I
la_oenb[42] I
la_oenb[43] I
la_oenb[44] I
la_oenb[45] I
la_oenb[46] I
la_oenb[47] I
la_oenb[48] I
la_oenb[49] I
la_oenb[4] I
la_oenb[50] I
la_oenb[51] I
la_oenb[52] I
la_oenb[53] I
la_oenb[54] I
la_oenb[55] I
la_oenb[56] I
la_oenb[57] I
la_oenb[58] I
la_oenb[59] I
la_oenb[5] I
la_oenb[60] I
la_oenb[61] I
la_oenb[62] I
la_oenb[63] I
la_oenb[6] I
la_oenb[7] I
la_oenb[8] I
la_oenb[9] I
user_clock2 I
user_irq[0] O
user_irq[1] O
user_irq[2] O
wb_clk_i I
wb_rst_i I
wbs_ack_o O
wbs_adr_i[0] I
wbs_adr_i[10] I
wbs_adr_i[11] I
wbs_adr_i[12] I
wbs_adr_i[13] I
wbs_adr_i[14] I
wbs_adr_i[15] I
wbs_adr_i[16] I
wbs_adr_i[17] I
wbs_adr_i[18] I
wbs_adr_i[19] I
wbs_adr_i[1] I
wbs_adr_i[20] I
wbs_adr_i[21] I
wbs_adr_i[22] I
wbs_adr_i[23] I
wbs_adr_i[24] I
wbs_adr_i[25] I
wbs_adr_i[26] I
wbs_adr_i[27] I
wbs_adr_i[28] I
wbs_adr_i[29] I
wbs_adr_i[2] I
wbs_adr_i[30] I
wbs_adr_i[31] I
wbs_adr_i[3] I
wbs_adr_i[4] I
wbs_adr_i[5] I
wbs_adr_i[6] I
wbs_adr_i[7] I
wbs_adr_i[8] I
wbs_adr_i[9] I
wbs_cyc_i I
wbs_dat_i[0] I
wbs_dat_i[10] I
wbs_dat_i[11] I
wbs_dat_i[12] I
wbs_dat_i[13] I
wbs_dat_i[14] I
wbs_dat_i[15] I
wbs_dat_i[16] I
wbs_dat_i[17] I
wbs_dat_i[18] I
wbs_dat_i[19] I
wbs_dat_i[1] I
wbs_dat_i[20] I
wbs_dat_i[21] I
wbs_dat_i[22] I
wbs_dat_i[23] I
wbs_dat_i[24] I
wbs_dat_i[25] I
wbs_dat_i[26] I
wbs_dat_i[27] I
wbs_dat_i[28] I
wbs_dat_i[29] I
wbs_dat_i[2] I
wbs_dat_i[30] I
wbs_dat_i[31] I
wbs_dat_i[3] I
wbs_dat_i[4] I
wbs_dat_i[5] I
wbs_dat_i[6] I
wbs_dat_i[7] I
wbs_dat_i[8] I
wbs_dat_i[9] I
wbs_dat_o[0] O
wbs_dat_o[10] O
wbs_dat_o[11] O
wbs_dat_o[12] O
wbs_dat_o[13] O
wbs_dat_o[14] O
wbs_dat_o[15] O
wbs_dat_o[16] O
wbs_dat_o[17] O
wbs_dat_o[18] O
wbs_dat_o[19] O
wbs_dat_o[1] O
wbs_dat_o[20] O
wbs_dat_o[21] O
wbs_dat_o[22] O
wbs_dat_o[23] O
wbs_dat_o[24] O
wbs_dat_o[25] O
wbs_dat_o[26] O
wbs_dat_o[27] O
wbs_dat_o[28] O
wbs_dat_o[29] O
wbs_dat_o[2] O
wbs_dat_o[30] O
wbs_dat_o[31] O
wbs_dat_o[3] O
wbs_dat_o[4] O
wbs_dat_o[5] O
wbs_dat_o[6] O
wbs_dat_o[7] O
wbs_dat_o[8] O
wbs_dat_o[9] O
wbs_sel_i[0] I
wbs_sel_i[1] I
wbs_sel_i[2] I
wbs_sel_i[3] I
wbs_stb_i I
wbs_we_i I

*D_NET *1 0.409109
*CONN
*P io_in[0] I
*I *677:io_in[0] I *D multiplexer
*CAP
1 io_in[0] 0.0318043
2 *677:io_in[0] 0.00087406
3 *1:13 0.0244585
4 *1:11 0.0235844
5 *1:9 0.0530393
6 *1:7 0.0530393
7 *1:5 0.0318043
8 *677:io_in[0] *677:io_in[1] 0
9 *677:io_in[0] *20:17 0
10 *677:io_in[0] *31:71 0.000160032
11 *1:9 *455:9 0.117347
12 *1:13 *5:25 0.0242444
13 *1:13 *6:55 0
14 *1:13 *7:25 0.00228706
15 *1:13 *20:15 0.000694762
16 *1:13 *26:65 0.00112124
17 *1:13 *33:13 0.01109
18 *1:13 *88:9 0.0076046
19 *1:13 *101:9 0.00278274
20 *1:13 *114:9 0.00626433
21 *1:13 *421:14 0.00332864
22 *1:13 *422:18 0.00364479
23 *1:13 *425:23 0.00458586
24 *1:13 *521:17 0.00534976
*RES
1 io_in[0] *1:5 225.91 
2 *1:5 *1:7 4.5 
3 *1:7 *1:9 505.745 
4 *1:9 *1:11 4.5 
5 *1:11 *1:13 102.25 
6 *1:13 *677:io_in[0] 18.7467 
*END

*D_NET *2 0.817421
*CONN
*P io_in[10] I
*I *677:io_in[10] I *D multiplexer
*I *674:io_in_1[5] I *D wrapped_ay8913
*I *676:io_in[5] I *D wrapped_mc14500
*I *678:io_in[5] I *D wrapped_sid
*I *680:io_in_1[5] I *D wrapped_sn76489
*I *679:io_in[5] I *D wrapped_qcpu
*CAP
1 io_in[10] 0.0145903
2 *677:io_in[10] 0.000871063
3 *674:io_in_1[5] 0.00166822
4 *676:io_in[5] 0.000626991
5 *678:io_in[5] 0.00103344
6 *680:io_in_1[5] 0.000107145
7 *679:io_in[5] 0.000470176
8 *2:109 0.0260767
9 *2:107 0.0244085
10 *2:105 0.0167402
11 *2:103 0.0200501
12 *2:95 0.0206494
13 *2:93 0.0164685
14 *2:71 0.016045
15 *2:69 0.0150116
16 *2:67 0.000965667
17 *2:65 0.000965667
18 *2:55 0.00690621
19 *2:53 0.00679907
20 *2:51 0.0076545
21 *2:49 0.00784834
22 *2:37 0.0106744
23 *2:35 0.0100104
24 *2:33 0.000379658
25 *2:31 0.00291031
26 *2:19 0.0195848
27 *2:17 0.0166198
28 *2:15 0.00509212
29 *2:5 0.0194897
30 *674:io_in_1[5] *433:13 0
31 *674:io_in_1[5] *438:13 0
32 *677:io_in[10] *677:io_in[11] 0
33 *677:io_in[10] *677:io_in[9] 0
34 *677:io_in[10] *3:27 0
35 *678:io_in[5] *678:io_in[4] 0.000502827
36 *678:io_in[5] *678:io_in[6] 0.00803155
37 *678:io_in[5] *678:io_in[7] 0.00785811
38 *679:io_in[5] *679:io_in[4] 0
39 *2:15 *3:21 0
40 *2:15 *33:13 0.00140415
41 *2:15 *88:9 0.00139729
42 *2:17 *3:53 7.83779e-05
43 *2:17 *4:53 1.97747e-05
44 *2:17 *38:90 0
45 *2:19 *3:53 0.085448
46 *2:19 *36:19 0.000470326
47 *2:19 *619:17 0.00128897
48 *2:31 *676:io_in[4] 0
49 *2:31 *3:69 0.0105427
50 *2:31 *36:19 0.000275676
51 *2:33 *35:23 0.00354705
52 *2:33 *549:9 0.0239498
53 *2:33 *609:13 0.0167566
54 *2:37 *679:io_in[4] 0
55 *2:37 *516:13 0.000631038
56 *2:49 *4:89 0.010226
57 *2:49 *36:51 0.00848233
58 *2:49 *594:13 0.000821648
59 *2:51 *36:53 0.0165782
60 *2:67 *3:107 0.0195243
61 *2:67 *38:70 0.0168755
62 *2:71 *34:108 0.0811534
63 *2:71 *35:71 0
64 *2:71 *38:74 0.000375914
65 *2:71 *370:9 0
66 *2:95 *3:23 0.144792
67 *2:95 *5:25 0.0225704
68 *2:95 *5:47 0.000725271
69 *2:95 *9:67 0.000169602
70 *2:95 *33:13 4.43253e-05
71 *2:95 *442:24 0.0118194
72 *2:95 *622:9 0.0135658
73 *2:103 *5:47 0.00125267
74 *2:103 *33:13 0.000238474
75 *2:103 *101:9 0
76 *2:103 *442:24 0.00523694
77 *2:105 *496:13 0.00167478
78 *2:105 *500:13 0.000199802
79 *2:105 *503:13 0
80 *2:105 *505:13 0
81 *2:105 *510:13 0.00817333
*RES
1 io_in[10] *2:5 102.79 
2 *2:5 *2:15 49.22 
3 *2:15 *2:17 1.14 
4 *2:17 *2:19 215.916 
5 *2:19 *2:31 43.976 
6 *2:31 *2:33 58.444 
7 *2:33 *2:35 4.5 
8 *2:35 *2:37 64.372 
9 *2:37 *679:io_in[5] 2.622 
10 *2:37 *2:49 34.004 
11 *2:49 *2:51 86.412 
12 *2:51 *2:53 4.5 
13 *2:53 *2:55 46.892 
14 *2:55 *680:io_in_1[5] 0.57 
15 *2:55 *2:65 4.5 
16 *2:65 *2:67 50.996 
17 *2:67 *2:69 4.5 
18 *2:69 *2:71 199.652 
19 *2:71 *678:io_in[5] 36.018 
20 *2:19 *676:io_in[5] 8.034 
21 *2:17 *2:93 4.5 
22 *2:93 *2:95 351.804 
23 *2:95 *2:103 41.968 
24 *2:103 *2:105 139.308 
25 *2:105 *2:107 4.5 
26 *2:107 *2:109 172.292 
27 *2:109 *674:io_in_1[5] 19.602 
28 *2:95 *677:io_in[10] 8.794 
*END

*D_NET *3 0.917191
*CONN
*P io_in[11] I
*I *678:io_in[6] I *D wrapped_sid
*I *680:io_in_1[6] I *D wrapped_sn76489
*I *679:io_in[6] I *D wrapped_qcpu
*I *676:io_in[6] I *D wrapped_mc14500
*I *674:io_in_1[6] I *D wrapped_ay8913
*I *677:io_in[11] I *D multiplexer
*CAP
1 io_in[11] 0.00178253
2 *678:io_in[6] 0.00141751
3 *680:io_in_1[6] 0.000108483
4 *679:io_in[6] 0.000458672
5 *676:io_in[6] 0.000215292
6 *674:io_in_1[6] 0.0249292
7 *677:io_in[11] 0.000611292
8 *3:111 0.0107029
9 *3:109 0.00928541
10 *3:107 0.00496982
11 *3:105 0.00496982
12 *3:95 0.00357844
13 *3:91 0.0150531
14 *3:89 0.0115831
15 *3:87 0.000634496
16 *3:85 0.000634496
17 *3:75 0.00988617
18 *3:73 0.0094275
19 *3:71 0.00336976
20 *3:69 0.0047112
21 *3:57 0.00191648
22 *3:53 0.000858402
23 *3:51 0.000498658
24 *3:43 0.0249292
25 *3:41 0.0165107
26 *3:39 0.0199443
27 *3:27 0.00435293
28 *3:23 0.00148777
29 *3:21 0.00240936
30 *3:13 0.0126781
31 *3:11 0.0114484
32 *3:9 0.0118505
33 *3:7 0.013633
34 *677:io_in[11] *4:19 0
35 *678:io_in[6] *677:wbs_adr_i[29] 0
36 *678:io_in[6] *678:io_in[4] 0.00643187
37 *678:io_in[6] *678:io_in[7] 0.000770532
38 *3:13 *99:9 0.00332023
39 *3:13 *112:9 0
40 *3:21 *4:13 0.000744005
41 *3:21 *4:15 8.15645e-05
42 *3:21 *8:5 1.91917e-06
43 *3:21 *38:90 0
44 *3:23 *4:15 0.144367
45 *3:23 *5:25 0.0105455
46 *3:23 *7:25 0.000749145
47 *3:23 *33:13 8.96263e-05
48 *3:27 *4:19 0
49 *3:39 *6:55 0.000270564
50 *3:39 *14:19 0.00318827
51 *3:39 *16:19 0
52 *3:39 *106:9 0
53 *3:39 *446:17 0.00651006
54 *3:41 *501:13 0.000938747
55 *3:41 *503:13 0
56 *3:41 *507:13 0.00746637
57 *3:41 *511:13 0.000461098
58 *3:41 *512:13 0
59 *3:53 *4:53 0.0840366
60 *3:53 *36:19 0.000710473
61 *3:53 *619:17 0.000589324
62 *3:69 *676:SDI 0.012085
63 *3:71 *9:75 0.00443608
64 *3:71 *547:9 0.0231832
65 *3:87 *4:89 0.0159222
66 *3:87 *11:99 0.020565
67 *3:87 *594:13 0.00110222
68 *3:91 *460:9 0.00409572
69 *3:111 *678:io_in[0] 0.00032652
70 *3:111 *35:71 0
71 *3:111 *36:73 0.0403221
72 *3:111 *37:69 0.0146155
73 *677:io_in[10] *677:io_in[11] 0
74 *677:io_in[10] *3:27 0
75 *678:io_in[5] *678:io_in[6] 0.00803155
76 *2:15 *3:21 0
77 *2:17 *3:53 7.83779e-05
78 *2:19 *3:53 0.085448
79 *2:31 *3:69 0.0105427
80 *2:67 *3:107 0.0195243
81 *2:95 *3:23 0.144792
*RES
1 io_in[11] *3:7 16.09 
2 *3:7 *3:9 80.636 
3 *3:9 *3:11 4.5 
4 *3:11 *3:13 92.492 
5 *3:13 *3:21 17.512 
6 *3:21 *3:23 350.74 
7 *3:23 *3:27 5.944 
8 *3:27 *677:io_in[11] 3.078 
9 *3:27 *3:39 49.66 
10 *3:39 *3:41 135.204 
11 *3:41 *3:43 4.5 
12 *3:43 *674:io_in_1[6] 175.598 
13 *3:21 *3:51 4.5 
14 *3:51 *3:53 212.42 
15 *3:53 *3:57 6.856 
16 *3:57 *676:io_in[6] 1.406 
17 *3:57 *3:69 45.556 
18 *3:69 *3:71 56.164 
19 *3:71 *3:73 4.5 
20 *3:73 *3:75 60.116 
21 *3:75 *679:io_in[6] 2.698 
22 *3:75 *3:85 4.5 
23 *3:85 *3:87 50.236 
24 *3:87 *3:89 4.5 
25 *3:89 *3:91 76.988 
26 *3:91 *3:95 28.44 
27 *3:95 *680:io_in_1[6] 0.722 
28 *3:95 *3:105 4.5 
29 *3:105 *3:107 57.532 
30 *3:107 *3:109 4.5 
31 *3:109 *3:111 199.348 
32 *3:111 *678:io_in[6] 37.538 
*END

*D_NET *4 0.815726
*CONN
*P io_in[12] I
*I *678:io_in[7] I *D wrapped_sid
*I *680:io_in_1[7] I *D wrapped_sn76489
*I *679:io_in[7] I *D wrapped_qcpu
*I *676:io_in[7] I *D wrapped_mc14500
*I *674:io_in_1[7] I *D wrapped_ay8913
*I *677:io_in[12] I *D multiplexer
*CAP
1 io_in[12] 0.0142529
2 *678:io_in[7] 0.00308677
3 *680:io_in_1[7] 0.000555538
4 *679:io_in[7] 0.000546137
5 *676:io_in[7] 0.00652354
6 *674:io_in_1[7] 0.024599
7 *677:io_in[12] 7.80547e-05
8 *4:113 0.018018
9 *4:111 0.0149312
10 *4:109 0.00789168
11 *4:107 0.00789168
12 *4:97 0.00353514
13 *4:93 0.0132584
14 *4:91 0.0102788
15 *4:89 0.000451937
16 *4:77 0.01005
17 *4:75 0.00905196
18 *4:73 0.00380568
19 *4:71 0.00380568
20 *4:69 0.0059435
21 *4:53 0.00811694
22 *4:51 0.0075369
23 *4:43 0.024599
24 *4:41 0.0184918
25 *4:39 0.0189797
26 *4:35 0.000644436
27 *4:19 0.00111866
28 *4:15 0.0115243
29 *4:13 0.0110552
30 *4:9 0.0211626
31 *4:7 0.0207477
32 *4:5 0.0142529
33 *674:io_in_1[7] *36:117 0.000643422
34 *678:io_in[7] *677:wbs_adr_i[29] 0
35 *679:io_in[7] *679:io_in[8] 0
36 *4:13 *33:13 0.000545504
37 *4:15 *5:25 0.0099627
38 *4:15 *7:25 0.000606308
39 *4:15 *10:21 0.00238445
40 *4:15 *33:13 0.0350159
41 *4:19 *677:io_in[13] 0
42 *4:35 *677:io_in[29] 0.00172703
43 *4:35 *24:57 1.22367e-05
44 *4:35 *38:110 1.11751e-05
45 *4:35 *98:11 0.00172703
46 *4:39 *22:13 0.00196465
47 *4:39 *100:6 0.0105484
48 *4:39 *438:17 0.0162175
49 *4:39 *440:17 0.000489633
50 *4:41 *512:13 0
51 *4:53 *36:19 0.0155105
52 *4:53 *38:9 0.0107873
53 *4:53 *38:90 0.00149281
54 *4:53 *619:17 0.000450298
55 *4:69 *616:36 0.000704569
56 *4:73 *534:9 0.0213501
57 *4:77 *679:io_in[8] 0
58 *4:89 *11:99 0.000469293
59 *4:89 *36:51 4.76572e-05
60 *4:89 *594:13 0.00225457
61 *4:93 *461:51 0.00179739
62 *4:93 *469:9 0.00129649
63 *4:97 *679:custom_settings[15] 0.00549327
64 *4:109 *35:69 0.00462677
65 *4:109 *36:71 0.00177219
66 *4:109 *37:67 0.0012196
67 *4:113 *678:io_in[0] 0.000162909
68 *4:113 *34:96 0.000733637
69 *4:113 *34:106 8.75318e-05
70 *4:113 *36:73 0.0828014
71 *4:113 *313:57 0
72 *677:io_in[11] *4:19 0
73 *678:io_in[5] *678:io_in[7] 0.00785811
74 *678:io_in[6] *678:io_in[7] 0.000770532
75 *2:17 *4:53 1.97747e-05
76 *2:49 *4:89 0.010226
77 *3:21 *4:13 0.000744005
78 *3:21 *4:15 8.15645e-05
79 *3:23 *4:15 0.144367
80 *3:27 *4:19 0
81 *3:53 *4:53 0.0840366
82 *3:87 *4:89 0.0159222
*RES
1 io_in[12] *4:5 100.51 
2 *4:5 *4:7 4.5 
3 *4:7 *4:9 140.676 
4 *4:9 *4:13 9.896 
5 *4:13 *4:15 349.676 
6 *4:15 *4:19 8.832 
7 *4:19 *677:io_in[12] 0.342 
8 *4:19 *4:35 18.364 
9 *4:35 *4:39 44.4 
10 *4:39 *4:41 124.108 
11 *4:41 *4:43 4.5 
12 *4:43 *674:io_in_1[7] 173.318 
13 *4:13 *4:51 4.5 
14 *4:51 *4:53 208.924 
15 *4:53 *676:io_in[7] 8.338 
16 *676:io_in[7] *4:69 47.022 
17 *4:69 *4:71 4.5 
18 *4:71 *4:73 51.756 
19 *4:73 *4:75 4.5 
20 *4:75 *4:77 57.684 
21 *4:77 *679:io_in[7] 3.306 
22 *4:77 *4:89 45.616 
23 *4:89 *4:91 4.5 
24 *4:91 *4:93 68.02 
25 *4:93 *4:97 36.952 
26 *4:97 *680:io_in_1[7] 3.914 
27 *4:97 *4:107 4.5 
28 *4:107 *4:109 66.196 
29 *4:109 *4:111 4.5 
30 *4:111 *4:113 202.54 
31 *4:113 *678:io_in[7] 40.73 
*END

*D_NET *5 0.755476
*CONN
*P io_in[13] I
*I *678:io_in[8] I *D wrapped_sid
*I *677:io_in[13] I *D multiplexer
*I *679:io_in[8] I *D wrapped_qcpu
*CAP
1 io_in[13] 0.0226516
2 *678:io_in[8] 0
3 *677:io_in[13] 0.000835923
4 *679:io_in[8] 0.0474378
5 *5:61 0.0115806
6 *5:59 0.0137362
7 *5:55 0.00374949
8 *5:49 0.0031741
9 *5:47 0.0017756
10 *5:29 0.001077
11 *5:25 0.0101226
12 *5:23 0.0101128
13 *5:9 0.0761585
14 *5:7 0.0286848
15 *5:5 0.0226516
16 *677:io_in[13] *677:io_in[14] 0
17 *677:io_in[13] *6:37 0
18 *677:io_in[13] *618:13 0
19 *5:25 *6:33 0.147913
20 *5:25 *6:55 6.34276e-05
21 *5:25 *7:25 0.00707776