*SPEF "ieee 1481-1999"
*DESIGN "user_project_wrapper"
*DATE "11:11:11 Fri 11 11, 1111"
*VENDOR "OpenRCX"
*PROGRAM "Parallel Extraction"
*VERSION "1.0"
*DESIGN_FLOW "NAME_SCOPE LOCAL" "PIN_CAP NONE"
*DIVIDER /
*DELIMITER :
*BUS_DELIMITER []
*T_UNIT 1 NS
*C_UNIT 1 PF
*R_UNIT 1 OHM
*L_UNIT 1 HENRY

*NAME_MAP
*1 io_in[0]
*2 io_in[10]
*3 io_in[11]
*4 io_in[12]
*5 io_in[13]
*6 io_in[14]
*7 io_in[15]
*8 io_in[16]
*9 io_in[17]
*10 io_in[18]
*11 io_in[19]
*12 io_in[1]
*13 io_in[20]
*14 io_in[21]
*15 io_in[22]
*16 io_in[23]
*17 io_in[24]
*18 io_in[25]
*19 io_in[26]
*20 io_in[27]
*21 io_in[28]
*22 io_in[29]
*23 io_in[2]
*24 io_in[30]
*25 io_in[31]
*26 io_in[32]
*27 io_in[33]
*28 io_in[34]
*29 io_in[35]
*30 io_in[36]
*31 io_in[37]
*32 io_in[3]
*33 io_in[4]
*34 io_in[5]
*35 io_in[6]
*36 io_in[7]
*37 io_in[8]
*38 io_in[9]
*39 io_oeb[0]
*40 io_oeb[10]
*41 io_oeb[11]
*42 io_oeb[12]
*43 io_oeb[13]
*44 io_oeb[14]
*45 io_oeb[15]
*46 io_oeb[16]
*47 io_oeb[17]
*48 io_oeb[18]
*49 io_oeb[19]
*50 io_oeb[1]
*51 io_oeb[20]
*52 io_oeb[21]
*53 io_oeb[22]
*54 io_oeb[23]
*55 io_oeb[24]
*56 io_oeb[25]
*57 io_oeb[26]
*58 io_oeb[27]
*59 io_oeb[28]
*60 io_oeb[29]
*61 io_oeb[2]
*62 io_oeb[30]
*63 io_oeb[31]
*64 io_oeb[32]
*65 io_oeb[33]
*66 io_oeb[34]
*67 io_oeb[35]
*68 io_oeb[36]
*69 io_oeb[37]
*70 io_oeb[3]
*71 io_oeb[4]
*72 io_oeb[5]
*73 io_oeb[6]
*74 io_oeb[7]
*75 io_oeb[8]
*76 io_oeb[9]
*77 io_out[0]
*78 io_out[10]
*79 io_out[11]
*80 io_out[12]
*81 io_out[13]
*82 io_out[14]
*83 io_out[15]
*84 io_out[16]
*85 io_out[17]
*86 io_out[18]
*87 io_out[19]
*88 io_out[1]
*89 io_out[20]
*90 io_out[21]
*91 io_out[22]
*92 io_out[23]
*93 io_out[24]
*94 io_out[25]
*95 io_out[26]
*96 io_out[27]
*97 io_out[28]
*98 io_out[29]
*99 io_out[2]
*100 io_out[30]
*101 io_out[31]
*102 io_out[32]
*103 io_out[33]
*104 io_out[34]
*105 io_out[35]
*106 io_out[36]
*107 io_out[37]
*108 io_out[3]
*109 io_out[4]
*110 io_out[5]
*111 io_out[6]
*112 io_out[7]
*113 io_out[8]
*114 io_out[9]
*115 la_data_in[0]
*116 la_data_in[10]
*117 la_data_in[11]
*118 la_data_in[12]
*119 la_data_in[13]
*120 la_data_in[14]
*121 la_data_in[15]
*122 la_data_in[16]
*123 la_data_in[17]
*124 la_data_in[18]
*125 la_data_in[19]
*126 la_data_in[1]
*127 la_data_in[20]
*128 la_data_in[21]
*129 la_data_in[22]
*130 la_data_in[23]
*131 la_data_in[24]
*132 la_data_in[25]
*133 la_data_in[26]
*134 la_data_in[27]
*135 la_data_in[28]
*136 la_data_in[29]
*137 la_data_in[2]
*138 la_data_in[30]
*139 la_data_in[31]
*140 la_data_in[32]
*141 la_data_in[33]
*142 la_data_in[34]
*143 la_data_in[35]
*144 la_data_in[36]
*145 la_data_in[37]
*146 la_data_in[38]
*147 la_data_in[39]
*148 la_data_in[3]
*149 la_data_in[40]
*150 la_data_in[41]
*151 la_data_in[42]
*152 la_data_in[43]
*153 la_data_in[44]
*154 la_data_in[45]
*155 la_data_in[46]
*156 la_data_in[47]
*157 la_data_in[48]
*158 la_data_in[49]
*159 la_data_in[4]
*160 la_data_in[50]
*161 la_data_in[51]
*162 la_data_in[52]
*163 la_data_in[53]
*164 la_data_in[54]
*165 la_data_in[55]
*166 la_data_in[56]
*167 la_data_in[57]
*168 la_data_in[58]
*169 la_data_in[59]
*170 la_data_in[5]
*171 la_data_in[60]
*172 la_data_in[61]
*173 la_data_in[62]
*174 la_data_in[63]
*175 la_data_in[6]
*176 la_data_in[7]
*177 la_data_in[8]
*178 la_data_in[9]
*179 la_data_out[0]
*180 la_data_out[10]
*181 la_data_out[11]
*182 la_data_out[12]
*183 la_data_out[13]
*184 la_data_out[14]
*185 la_data_out[15]
*186 la_data_out[16]
*187 la_data_out[17]
*188 la_data_out[18]
*189 la_data_out[19]
*190 la_data_out[1]
*191 la_data_out[20]
*192 la_data_out[21]
*193 la_data_out[22]
*194 la_data_out[23]
*195 la_data_out[24]
*196 la_data_out[25]
*197 la_data_out[26]
*198 la_data_out[27]
*199 la_data_out[28]
*200 la_data_out[29]
*201 la_data_out[2]
*202 la_data_out[30]
*203 la_data_out[31]
*204 la_data_out[32]
*205 la_data_out[33]
*206 la_data_out[34]
*207 la_data_out[35]
*208 la_data_out[36]
*209 la_data_out[37]
*210 la_data_out[38]
*211 la_data_out[39]
*212 la_data_out[3]
*213 la_data_out[40]
*214 la_data_out[41]
*215 la_data_out[42]
*216 la_data_out[43]
*217 la_data_out[44]
*218 la_data_out[45]
*219 la_data_out[46]
*220 la_data_out[47]
*221 la_data_out[48]
*222 la_data_out[49]
*223 la_data_out[4]
*224 la_data_out[50]
*225 la_data_out[51]
*226 la_data_out[52]
*227 la_data_out[53]
*228 la_data_out[54]
*229 la_data_out[55]
*230 la_data_out[56]
*231 la_data_out[57]
*232 la_data_out[58]
*233 la_data_out[59]
*234 la_data_out[5]
*235 la_data_out[60]
*236 la_data_out[61]
*237 la_data_out[62]
*238 la_data_out[63]
*239 la_data_out[6]
*240 la_data_out[7]
*241 la_data_out[8]
*242 la_data_out[9]
*243 la_oenb[0]
*244 la_oenb[10]
*245 la_oenb[11]
*246 la_oenb[12]
*247 la_oenb[13]
*248 la_oenb[14]
*249 la_oenb[15]
*250 la_oenb[16]
*251 la_oenb[17]
*252 la_oenb[18]
*253 la_oenb[19]
*254 la_oenb[1]
*255 la_oenb[20]
*256 la_oenb[21]
*257 la_oenb[22]
*258 la_oenb[23]
*259 la_oenb[24]
*260 la_oenb[25]
*261 la_oenb[26]
*262 la_oenb[27]
*263 la_oenb[28]
*264 la_oenb[29]
*265 la_oenb[2]
*266 la_oenb[30]
*267 la_oenb[31]
*268 la_oenb[32]
*269 la_oenb[33]
*270 la_oenb[34]
*271 la_oenb[35]
*272 la_oenb[36]
*273 la_oenb[37]
*274 la_oenb[38]
*275 la_oenb[39]
*276 la_oenb[3]
*277 la_oenb[40]
*278 la_oenb[41]
*279 la_oenb[42]
*280 la_oenb[43]
*281 la_oenb[44]
*282 la_oenb[45]
*283 la_oenb[46]
*284 la_oenb[47]
*285 la_oenb[48]
*286 la_oenb[49]
*287 la_oenb[4]
*288 la_oenb[50]
*289 la_oenb[51]
*290 la_oenb[52]
*291 la_oenb[53]
*292 la_oenb[54]
*293 la_oenb[55]
*294 la_oenb[56]
*295 la_oenb[57]
*296 la_oenb[58]
*297 la_oenb[59]
*298 la_oenb[5]
*299 la_oenb[60]
*300 la_oenb[61]
*301 la_oenb[62]
*302 la_oenb[63]
*303 la_oenb[6]
*304 la_oenb[7]
*305 la_oenb[8]
*306 la_oenb[9]
*307 user_clock2
*308 user_irq[0]
*309 user_irq[1]
*310 user_irq[2]
*313 wb_clk_i
*314 wb_rst_i
*315 wbs_ack_o
*316 wbs_adr_i[0]
*317 wbs_adr_i[10]
*318 wbs_adr_i[11]
*319 wbs_adr_i[12]
*320 wbs_adr_i[13]
*321 wbs_adr_i[14]
*322 wbs_adr_i[15]
*323 wbs_adr_i[16]
*324 wbs_adr_i[17]
*325 wbs_adr_i[18]
*326 wbs_adr_i[19]
*327 wbs_adr_i[1]
*328 wbs_adr_i[20]
*329 wbs_adr_i[21]
*330 wbs_adr_i[22]
*331 wbs_adr_i[23]
*332 wbs_adr_i[24]
*333 wbs_adr_i[25]
*334 wbs_adr_i[26]
*335 wbs_adr_i[27]
*336 wbs_adr_i[28]
*337 wbs_adr_i[29]
*338 wbs_adr_i[2]
*339 wbs_adr_i[30]
*340 wbs_adr_i[31]
*341 wbs_adr_i[3]
*342 wbs_adr_i[4]
*343 wbs_adr_i[5]
*344 wbs_adr_i[6]
*345 wbs_adr_i[7]
*346 wbs_adr_i[8]
*347 wbs_adr_i[9]
*348 wbs_cyc_i
*349 wbs_dat_i[0]
*350 wbs_dat_i[10]
*351 wbs_dat_i[11]
*352 wbs_dat_i[12]
*353 wbs_dat_i[13]
*354 wbs_dat_i[14]
*355 wbs_dat_i[15]
*356 wbs_dat_i[16]
*357 wbs_dat_i[17]
*358 wbs_dat_i[18]
*359 wbs_dat_i[19]
*360 wbs_dat_i[1]
*361 wbs_dat_i[20]
*362 wbs_dat_i[21]
*363 wbs_dat_i[22]
*364 wbs_dat_i[23]
*365 wbs_dat_i[24]
*366 wbs_dat_i[25]
*367 wbs_dat_i[26]
*368 wbs_dat_i[27]
*369 wbs_dat_i[28]
*370 wbs_dat_i[29]
*371 wbs_dat_i[2]
*372 wbs_dat_i[30]
*373 wbs_dat_i[31]
*374 wbs_dat_i[3]
*375 wbs_dat_i[4]
*376 wbs_dat_i[5]
*377 wbs_dat_i[6]
*378 wbs_dat_i[7]
*379 wbs_dat_i[8]
*380 wbs_dat_i[9]
*381 wbs_dat_o[0]
*382 wbs_dat_o[10]
*383 wbs_dat_o[11]
*384 wbs_dat_o[12]
*385 wbs_dat_o[13]
*386 wbs_dat_o[14]
*387 wbs_dat_o[15]
*388 wbs_dat_o[16]
*389 wbs_dat_o[17]
*390 wbs_dat_o[18]
*391 wbs_dat_o[19]
*392 wbs_dat_o[1]
*393 wbs_dat_o[20]
*394 wbs_dat_o[21]
*395 wbs_dat_o[22]
*396 wbs_dat_o[23]
*397 wbs_dat_o[24]
*398 wbs_dat_o[25]
*399 wbs_dat_o[26]
*400 wbs_dat_o[27]
*401 wbs_dat_o[28]
*402 wbs_dat_o[29]
*403 wbs_dat_o[2]
*404 wbs_dat_o[30]
*405 wbs_dat_o[31]
*406 wbs_dat_o[3]
*407 wbs_dat_o[4]
*408 wbs_dat_o[5]
*409 wbs_dat_o[6]
*410 wbs_dat_o[7]
*411 wbs_dat_o[8]
*412 wbs_dat_o[9]
*413 wbs_sel_i[0]
*414 wbs_sel_i[1]
*415 wbs_sel_i[2]
*416 wbs_sel_i[3]
*417 wbs_stb_i
*418 wbs_we_i
*419 blinker_do\[0\]
*420 blinker_do\[1\]
*421 blinker_do\[2\]
*422 custom_settings\[0\]
*423 custom_settings\[10\]
*424 custom_settings\[11\]
*425 custom_settings\[12\]
*426 custom_settings\[13\]
*427 custom_settings\[14\]
*428 custom_settings\[15\]
*429 custom_settings\[16\]
*430 custom_settings\[17\]
*431 custom_settings\[18\]
*432 custom_settings\[19\]
*433 custom_settings\[1\]
*434 custom_settings\[20\]
*435 custom_settings\[21\]
*436 custom_settings\[22\]
*437 custom_settings\[23\]
*438 custom_settings\[24\]
*439 custom_settings\[25\]
*440 custom_settings\[26\]
*441 custom_settings\[27\]
*442 custom_settings\[28\]
*443 custom_settings\[29\]
*444 custom_settings\[2\]
*445 custom_settings\[30\]
*446 custom_settings\[31\]
*447 custom_settings\[3\]
*448 custom_settings\[4\]
*449 custom_settings\[5\]
*450 custom_settings\[6\]
*451 custom_settings\[7\]
*452 custom_settings\[8\]
*453 custom_settings\[9\]
*454 qcpu_do\[0\]
*455 qcpu_do\[10\]
*456 qcpu_do\[11\]
*457 qcpu_do\[12\]
*458 qcpu_do\[13\]
*459 qcpu_do\[14\]
*460 qcpu_do\[15\]
*461 qcpu_do\[16\]
*462 qcpu_do\[17\]
*463 qcpu_do\[18\]
*464 qcpu_do\[19\]
*465 qcpu_do\[1\]
*466 qcpu_do\[20\]
*467 qcpu_do\[21\]
*468 qcpu_do\[22\]
*469 qcpu_do\[23\]
*470 qcpu_do\[24\]
*471 qcpu_do\[25\]
*472 qcpu_do\[26\]
*473 qcpu_do\[27\]
*474 qcpu_do\[28\]
*475 qcpu_do\[29\]
*476 qcpu_do\[2\]
*477 qcpu_do\[30\]
*478 qcpu_do\[31\]
*479 qcpu_do\[32\]
*480 qcpu_do\[3\]
*481 qcpu_do\[4\]
*482 qcpu_do\[5\]
*483 qcpu_do\[6\]
*484 qcpu_do\[7\]
*485 qcpu_do\[8\]
*486 qcpu_do\[9\]
*487 qcpu_oeb\[0\]
*488 qcpu_oeb\[10\]
*489 qcpu_oeb\[11\]
*490 qcpu_oeb\[12\]
*491 qcpu_oeb\[13\]
*492 qcpu_oeb\[14\]
*493 qcpu_oeb\[15\]
*494 qcpu_oeb\[16\]
*495 qcpu_oeb\[17\]
*496 qcpu_oeb\[18\]
*497 qcpu_oeb\[19\]
*498 qcpu_oeb\[1\]
*499 qcpu_oeb\[20\]
*500 qcpu_oeb\[21\]
*501 qcpu_oeb\[22\]
*502 qcpu_oeb\[23\]
*503 qcpu_oeb\[24\]
*504 qcpu_oeb\[25\]
*505 qcpu_oeb\[26\]
*506 qcpu_oeb\[27\]
*507 qcpu_oeb\[28\]
*508 qcpu_oeb\[29\]
*509 qcpu_oeb\[2\]
*510 qcpu_oeb\[30\]
*511 qcpu_oeb\[31\]
*512 qcpu_oeb\[32\]
*513 qcpu_oeb\[3\]
*514 qcpu_oeb\[4\]
*515 qcpu_oeb\[5\]
*516 qcpu_oeb\[6\]
*517 qcpu_oeb\[7\]
*518 qcpu_oeb\[8\]
*519 qcpu_oeb\[9\]
*520 qcpu_sram_addr\[0\]
*521 qcpu_sram_addr\[1\]
*522 qcpu_sram_addr\[2\]
*523 qcpu_sram_addr\[3\]
*524 qcpu_sram_addr\[4\]
*525 qcpu_sram_addr\[5\]
*526 qcpu_sram_gwe
*527 qcpu_sram_in\[0\]
*528 qcpu_sram_in\[1\]
*529 qcpu_sram_in\[2\]
*530 qcpu_sram_in\[3\]
*531 qcpu_sram_in\[4\]
*532 qcpu_sram_in\[5\]
*533 qcpu_sram_in\[6\]
*534 qcpu_sram_in\[7\]
*535 qcpu_sram_out\[0\]
*536 qcpu_sram_out\[1\]
*537 qcpu_sram_out\[2\]
*538 qcpu_sram_out\[3\]
*539 qcpu_sram_out\[4\]
*540 qcpu_sram_out\[5\]
*541 qcpu_sram_out\[6\]
*542 qcpu_sram_out\[7\]
*543 rst_blinker
*544 rst_qcpu
*545 rst_sid
*546 rst_sn76489
*547 sid_do\[0\]
*548 sid_do\[10\]
*549 sid_do\[11\]
*550 sid_do\[12\]
*551 sid_do\[13\]
*552 sid_do\[14\]
*553 sid_do\[15\]
*554 sid_do\[16\]
*555 sid_do\[17\]
*556 sid_do\[18\]
*557 sid_do\[19\]
*558 sid_do\[1\]
*559 sid_do\[20\]
*560 sid_do\[2\]
*561 sid_do\[3\]
*562 sid_do\[4\]
*563 sid_do\[5\]
*564 sid_do\[6\]
*565 sid_do\[7\]
*566 sid_do\[8\]
*567 sid_do\[9\]
*568 sid_oeb
*569 sn76489_do\[0\]
*570 sn76489_do\[10\]
*571 sn76489_do\[11\]
*572 sn76489_do\[12\]
*573 sn76489_do\[13\]
*574 sn76489_do\[14\]
*575 sn76489_do\[15\]
*576 sn76489_do\[16\]
*577 sn76489_do\[17\]
*578 sn76489_do\[18\]
*579 sn76489_do\[19\]
*580 sn76489_do\[1\]
*581 sn76489_do\[20\]
*582 sn76489_do\[21\]
*583 sn76489_do\[22\]
*584 sn76489_do\[23\]
*585 sn76489_do\[24\]
*586 sn76489_do\[25\]
*587 sn76489_do\[26\]
*588 sn76489_do\[27\]
*589 sn76489_do\[2\]
*590 sn76489_do\[3\]
*591 sn76489_do\[4\]
*592 sn76489_do\[5\]
*593 sn76489_do\[6\]
*594 sn76489_do\[7\]
*595 sn76489_do\[8\]
*596 sn76489_do\[9\]
*597 avali_logo
*598 blinker
*599 multiplexer
*600 sid
*601 wrapped_qcpu
*602 wrapped_sn76489

*PORTS
io_in[0] I
io_in[10] I
io_in[11] I
io_in[12] I
io_in[13] I
io_in[14] I
io_in[15] I
io_in[16] I
io_in[17] I
io_in[18] I
io_in[19] I
io_in[1] I
io_in[20] I
io_in[21] I
io_in[22] I
io_in[23] I
io_in[24] I
io_in[25] I
io_in[26] I
io_in[27] I
io_in[28] I
io_in[29] I
io_in[2] I
io_in[30] I
io_in[31] I
io_in[32] I
io_in[33] I
io_in[34] I
io_in[35] I
io_in[36] I
io_in[37] I
io_in[3] I
io_in[4] I
io_in[5] I
io_in[6] I
io_in[7] I
io_in[8] I
io_in[9] I
io_oeb[0] O
io_oeb[10] O
io_oeb[11] O
io_oeb[12] O
io_oeb[13] O
io_oeb[14] O
io_oeb[15] O
io_oeb[16] O
io_oeb[17] O
io_oeb[18] O
io_oeb[19] O
io_oeb[1] O
io_oeb[20] O
io_oeb[21] O
io_oeb[22] O
io_oeb[23] O
io_oeb[24] O
io_oeb[25] O
io_oeb[26] O
io_oeb[27] O
io_oeb[28] O
io_oeb[29] O
io_oeb[2] O
io_oeb[30] O
io_oeb[31] O
io_oeb[32] O
io_oeb[33] O
io_oeb[34] O
io_oeb[35] O
io_oeb[36] O
io_oeb[37] O
io_oeb[3] O
io_oeb[4] O
io_oeb[5] O
io_oeb[6] O
io_oeb[7] O
io_oeb[8] O
io_oeb[9] O
io_out[0] O
io_out[10] O
io_out[11] O
io_out[12] O
io_out[13] O
io_out[14] O
io_out[15] O
io_out[16] O
io_out[17] O
io_out[18] O
io_out[19] O
io_out[1] O
io_out[20] O
io_out[21] O
io_out[22] O
io_out[23] O
io_out[24] O
io_out[25] O
io_out[26] O
io_out[27] O
io_out[28] O
io_out[29] O
io_out[2] O
io_out[30] O
io_out[31] O
io_out[32] O
io_out[33] O
io_out[34] O
io_out[35] O
io_out[36] O
io_out[37] O
io_out[3] O
io_out[4] O
io_out[5] O
io_out[6] O
io_out[7] O
io_out[8] O
io_out[9] O
la_data_in[0] I
la_data_in[10] I
la_data_in[11] I
la_data_in[12] I
la_data_in[13] I
la_data_in[14] I
la_data_in[15] I
la_data_in[16] I
la_data_in[17] I
la_data_in[18] I
la_data_in[19] I
la_data_in[1] I
la_data_in[20] I
la_data_in[21] I
la_data_in[22] I
la_data_in[23] I
la_data_in[24] I
la_data_in[25] I
la_data_in[26] I
la_data_in[27] I
la_data_in[28] I
la_data_in[29] I
la_data_in[2] I
la_data_in[30] I
la_data_in[31] I
la_data_in[32] I
la_data_in[33] I
la_data_in[34] I
la_data_in[35] I
la_data_in[36] I
la_data_in[37] I
la_data_in[38] I
la_data_in[39] I
la_data_in[3] I
la_data_in[40] I
la_data_in[41] I
la_data_in[42] I
la_data_in[43] I
la_data_in[44] I
la_data_in[45] I
la_data_in[46] I
la_data_in[47] I
la_data_in[48] I
la_data_in[49] I
la_data_in[4] I
la_data_in[50] I
la_data_in[51] I
la_data_in[52] I
la_data_in[53] I
la_data_in[54] I
la_data_in[55] I
la_data_in[56] I
la_data_in[57] I
la_data_in[58] I
la_data_in[59] I
la_data_in[5] I
la_data_in[60] I
la_data_in[61] I
la_data_in[62] I
la_data_in[63] I
la_data_in[6] I
la_data_in[7] I
la_data_in[8] I
la_data_in[9] I
la_data_out[0] O
la_data_out[10] O
la_data_out[11] O
la_data_out[12] O
la_data_out[13] O
la_data_out[14] O
la_data_out[15] O
la_data_out[16] O
la_data_out[17] O
la_data_out[18] O
la_data_out[19] O
la_data_out[1] O
la_data_out[20] O
la_data_out[21] O
la_data_out[22] O
la_data_out[23] O
la_data_out[24] O
la_data_out[25] O
la_data_out[26] O
la_data_out[27] O
la_data_out[28] O
la_data_out[29] O
la_data_out[2] O
la_data_out[30] O
la_data_out[31] O
la_data_out[32] O
la_data_out[33] O
la_data_out[34] O
la_data_out[35] O
la_data_out[36] O
la_data_out[37] O
la_data_out[38] O
la_data_out[39] O
la_data_out[3] O
la_data_out[40] O
la_data_out[41] O
la_data_out[42] O
la_data_out[43] O
la_data_out[44] O
la_data_out[45] O
la_data_out[46] O
la_data_out[47] O
la_data_out[48] O
la_data_out[49] O
la_data_out[4] O
la_data_out[50] O
la_data_out[51] O
la_data_out[52] O
la_data_out[53] O
la_data_out[54] O
la_data_out[55] O
la_data_out[56] O
la_data_out[57] O
la_data_out[58] O
la_data_out[59] O
la_data_out[5] O
la_data_out[60] O
la_data_out[61] O
la_data_out[62] O
la_data_out[63] O
la_data_out[6] O
la_data_out[7] O
la_data_out[8] O
la_data_out[9] O
la_oenb[0] I
la_oenb[10] I
la_oenb[11] I
la_oenb[12] I
la_oenb[13] I
la_oenb[14] I
la_oenb[15] I
la_oenb[16] I
la_oenb[17] I
la_oenb[18] I
la_oenb[19] I
la_oenb[1] I
la_oenb[20] I
la_oenb[21] I
la_oenb[22] I
la_oenb[23] I
la_oenb[24] I
la_oenb[25] I
la_oenb[26] I
la_oenb[27] I
la_oenb[28] I
la_oenb[29] I
la_oenb[2] I
la_oenb[30] I
la_oenb[31] I
la_oenb[32] I
la_oenb[33] I
la_oenb[34] I
la_oenb[35] I
la_oenb[36] I
la_oenb[37] I
la_oenb[38] I
la_oenb[39] I
la_oenb[3] I
la_oenb[40] I
la_oenb[41] I
la_oenb[42] I
la_oenb[43] I
la_oenb[44] I
la_oenb[45] I
la_oenb[46] I
la_oenb[47] I
la_oenb[48] I
la_oenb[49] I
la_oenb[4] I
la_oenb[50] I
la_oenb[51] I
la_oenb[52] I
la_oenb[53] I
la_oenb[54] I
la_oenb[55] I
la_oenb[56] I
la_oenb[57] I
la_oenb[58] I
la_oenb[59] I
la_oenb[5] I
la_oenb[60] I
la_oenb[61] I
la_oenb[62] I
la_oenb[63] I
la_oenb[6] I
la_oenb[7] I
la_oenb[8] I
la_oenb[9] I
user_clock2 I
user_irq[0] O
user_irq[1] O
user_irq[2] O
wb_clk_i I
wb_rst_i I
wbs_ack_o O
wbs_adr_i[0] I
wbs_adr_i[10] I
wbs_adr_i[11] I
wbs_adr_i[12] I
wbs_adr_i[13] I
wbs_adr_i[14] I
wbs_adr_i[15] I
wbs_adr_i[16] I
wbs_adr_i[17] I
wbs_adr_i[18] I
wbs_adr_i[19] I
wbs_adr_i[1] I
wbs_adr_i[20] I
wbs_adr_i[21] I
wbs_adr_i[22] I
wbs_adr_i[23] I
wbs_adr_i[24] I
wbs_adr_i[25] I
wbs_adr_i[26] I
wbs_adr_i[27] I
wbs_adr_i[28] I
wbs_adr_i[29] I
wbs_adr_i[2] I
wbs_adr_i[30] I
wbs_adr_i[31] I
wbs_adr_i[3] I
wbs_adr_i[4] I
wbs_adr_i[5] I
wbs_adr_i[6] I
wbs_adr_i[7] I
wbs_adr_i[8] I
wbs_adr_i[9] I
wbs_cyc_i I
wbs_dat_i[0] I
wbs_dat_i[10] I
wbs_dat_i[11] I
wbs_dat_i[12] I
wbs_dat_i[13] I
wbs_dat_i[14] I
wbs_dat_i[15] I
wbs_dat_i[16] I
wbs_dat_i[17] I
wbs_dat_i[18] I
wbs_dat_i[19] I
wbs_dat_i[1] I
wbs_dat_i[20] I
wbs_dat_i[21] I
wbs_dat_i[22] I
wbs_dat_i[23] I
wbs_dat_i[24] I
wbs_dat_i[25] I
wbs_dat_i[26] I
wbs_dat_i[27] I
wbs_dat_i[28] I
wbs_dat_i[29] I
wbs_dat_i[2] I
wbs_dat_i[30] I
wbs_dat_i[31] I
wbs_dat_i[3] I
wbs_dat_i[4] I
wbs_dat_i[5] I
wbs_dat_i[6] I
wbs_dat_i[7] I
wbs_dat_i[8] I
wbs_dat_i[9] I
wbs_dat_o[0] O
wbs_dat_o[10] O
wbs_dat_o[11] O
wbs_dat_o[12] O
wbs_dat_o[13] O
wbs_dat_o[14] O
wbs_dat_o[15] O
wbs_dat_o[16] O
wbs_dat_o[17] O
wbs_dat_o[18] O
wbs_dat_o[19] O
wbs_dat_o[1] O
wbs_dat_o[20] O
wbs_dat_o[21] O
wbs_dat_o[22] O
wbs_dat_o[23] O
wbs_dat_o[24] O
wbs_dat_o[25] O
wbs_dat_o[26] O
wbs_dat_o[27] O
wbs_dat_o[28] O
wbs_dat_o[29] O
wbs_dat_o[2] O
wbs_dat_o[30] O
wbs_dat_o[31] O
wbs_dat_o[3] O
wbs_dat_o[4] O
wbs_dat_o[5] O
wbs_dat_o[6] O
wbs_dat_o[7] O
wbs_dat_o[8] O
wbs_dat_o[9] O
wbs_sel_i[0] I
wbs_sel_i[1] I
wbs_sel_i[2] I
wbs_sel_i[3] I
wbs_stb_i I
wbs_we_i I

*D_NET *1 0.460291
*CONN
*P io_in[0] I
*I *599:io_in[0] I *D multiplexer
*CAP
1 io_in[0] 0.00488535
2 *599:io_in[0] 0.000193788
3 *1:13 0.0138827
4 *1:11 0.0136889
5 *1:9 0.0696505
6 *1:7 0.0745359
7 *1:13 *23:13 0.177859
8 *1:13 *25:25 2.42724e-05
9 *1:13 *27:29 0.0244188
10 *1:13 *35:19 0.00222998
11 *1:13 *88:9 0.0784865
12 *1:13 *102:9 0.000434879
*RES
1 io_in[0] *1:7 38.89 
2 *1:7 *1:9 474.468 
3 *1:9 *1:11 4.5 
4 *1:11 *1:13 434.796 
5 *1:13 *599:io_in[0] 5.602 
*END

*D_NET *2 0.555023
*CONN
*P io_in[10] I
*I *601:io_in[5] I *D wrapped_qcpu
*I *600:io_in[5] I *D wrapped_sid
*I *602:io_in_1[5] I *D wrapped_sn76489
*I *599:io_in[10] I *D multiplexer
*CAP
1 io_in[10] 0.0234915
2 *601:io_in[5] 0.000465637
3 *600:io_in[5] 0.000870997
4 *602:io_in_1[5] 0.000107145
5 *599:io_in[10] 0.00065039
6 *2:79 0.00302491
7 *2:77 0.00267418
8 *2:59 0.000779576
9 *2:57 0.000259305
10 *2:55 0.00377735
11 *2:53 0.00377735
12 *2:43 0.00460903
13 *2:39 0.011065
14 *2:37 0.00725602
15 *2:33 0.00115852
16 *2:31 0.0306285
17 *2:29 0.0306285
18 *2:19 0.0228722
19 *2:17 0.0256219
20 *2:13 0.00357577
21 *2:9 0.00940043
22 *2:7 0.00922475
23 *2:5 0.0234915
24 *600:io_in[5] *396:17 0.00839939
25 *600:io_in[5] *401:25 0.00839225
26 *601:io_in[5] *601:io_in[6] 0
27 *601:io_in[5] *3:39 0.000526238
28 *601:io_in[5] *4:35 0.000501328
29 *2:9 *3:79 0
30 *2:13 *4:75 0
31 *2:17 *4:75 0
32 *2:19 *599:blinker_do[0] 0.00375757
33 *2:19 *599:blinker_do[1] 0.00137201
34 *2:19 *599:blinker_do[2] 0.00350271
35 *2:19 *599:io_in[14] 0.000235925
36 *2:19 *599:io_in[20] 0.000771185
37 *2:19 *4:75 0.0142715
38 *2:19 *8:57 0.0106562
39 *2:19 *9:13 0.000243133
40 *2:19 *13:19 0.00680982
41 *2:19 *21:21 0.0132774
42 *2:19 *25:25 0
43 *2:19 *103:9 0.0190508
44 *2:19 *110:9 0
45 *2:19 *543:15 0.000281966
46 *2:19 *546:13 8.1274e-05
47 *2:31 *601:io_in[4] 0.000205492
48 *2:31 *38:19 0.0232473
49 *2:37 *3:39 0.0135578
50 *2:37 *4:35 0.0163276
51 *2:39 *88:13 0.0346949
52 *2:55 *3:53 0.0193675
53 *2:59 *601:wb_clk_i 0.0296927
54 *2:59 *4:59 0
55 *2:59 *34:31 0.0292402
56 *2:77 *4:59 0
57 *2:77 *34:45 0.00633448
58 *2:77 *313:53 0.00091424
59 *2:77 *313:69 0.00507567
60 *2:79 *34:47 0.0452301
61 *2:79 *34:51 0.000121444
62 *2:79 *35:82 3.73747e-05
63 *2:79 *37:48 0.0194344
*RES
1 io_in[10] *2:5 166.63 
2 *2:5 *2:7 4.5 
3 *2:7 *2:9 62.092 
4 *2:9 *2:13 5.64 
5 *2:13 *2:17 23.484 
6 *2:17 *2:19 260.376 
7 *2:19 *599:io_in[10] 7.73 
8 *2:13 *2:29 4.5 
9 *2:29 *2:31 266.228 
10 *2:31 *2:33 4.5 
11 *2:33 *2:37 44.4 
12 *2:37 *2:39 86.26 
13 *2:39 *2:43 35.28 
14 *2:43 *602:io_in_1[5] 0.57 
15 *2:43 *2:53 4.5 
16 *2:53 *2:55 49.324 
17 *2:55 *2:57 4.5 
18 *2:57 *2:59 71.668 
19 *2:59 *2:77 35.1489 
20 *2:77 *2:79 111.036 
21 *2:79 *600:io_in[5] 34.65 
22 *2:33 *601:io_in[5] 8.414 
*END

*D_NET *3 0.665857
*CONN
*P io_in[11] I
*I *599:io_in[11] I *D multiplexer
*I *602:io_in_1[6] I *D wrapped_sn76489
*I *600:io_in[6] I *D wrapped_sid
*I *601:io_in[6] I *D wrapped_qcpu
*CAP
1 io_in[11] 0.00178253
2 *599:io_in[11] 0.00083288
3 *602:io_in_1[6] 6.70714e-05
4 *600:io_in[6] 0.00252457
5 *601:io_in[6] 0.000610728
6 *3:81 0.00193244
7 *3:79 0.00133536
8 *3:57 0.0176817
9 *3:55 0.0151571
10 *3:53 0.00484616
11 *3:51 0.00494477
12 *3:45 0.00475449
13 *3:41 0.0161906
14 *3:39 0.0143472
15 *3:25 0.0437145
16 *3:23 0.0414536
17 *3:13 0.0116208
18 *3:11 0.0107615
19 *3:9 0.0161899
20 *3:7 0.0179725
21 *600:io_in[6] *396:17 0.00945203
22 *3:13 *38:13 0.0629744
23 *3:23 *4:17 0.000828328
24 *3:23 *4:19 0.000198733
25 *3:23 *4:75 0
26 *3:23 *5:29 8.55327e-05
27 *3:39 *4:35 0.000213918
28 *3:45 *601:custom_settings[13] 0.00199953
29 *3:57 *4:59 0.0802845
30 *3:57 *34:23 0.000398289
31 *3:57 *34:47 0
32 *3:57 *34:51 0
33 *3:81 *4:75 0.116395
34 *3:81 *5:59 0.0145198
35 *3:81 *16:19 0.000259587
36 *3:81 *33:13 0.000106492
37 *3:81 *38:89 0.115969
38 *601:io_in[5] *601:io_in[6] 0
39 *601:io_in[5] *3:39 0.000526238
40 *2:9 *3:79 0
41 *2:37 *3:39 0.0135578
42 *2:55 *3:53 0.0193675
*RES
1 io_in[11] *3:7 16.09 
2 *3:7 *3:9 110.276 
3 *3:9 *3:11 4.5 
4 *3:11 *3:13 151.772 
5 *3:13 *3:23 21.404 
6 *3:23 *3:25 266.076 
7 *3:25 *601:io_in[6] 3.61 
8 *3:25 *3:39 44.492 
9 *3:39 *3:41 77.292 
10 *3:41 *3:45 42.272 
11 *3:45 *3:51 5.26 
12 *3:51 *3:53 56.62 
13 *3:53 *3:55 4.5 
14 *3:55 *3:57 199.5 
15 *3:57 *600:io_in[6] 36.93 
16 *3:45 *602:io_in_1[6] 0.494 
17 *3:23 *3:79 5.944 
18 *3:79 *3:81 283.708 
19 *3:81 *599:io_in[11] 8.642 
*END

*D_NET *4 0.653073
*CONN
*P io_in[12] I
*I *599:io_in[12] I *D multiplexer
*I *600:io_in[7] I *D wrapped_sid
*I *602:io_in_1[7] I *D wrapped_sn76489
*I *601:io_in[7] I *D wrapped_qcpu
*CAP
1 io_in[12] 0.021888
2 *599:io_in[12] 0.000811011
3 *600:io_in[7] 0.00360866
4 *602:io_in_1[7] 0.000585266
5 *601:io_in[7] 0.0004717
6 *4:75 0.0113595
7 *4:73 0.0105485
8 *4:59 0.0183773
9 *4:57 0.0147686
10 *4:55 0.00584726
11 *4:53 0.00584726
12 *4:43 0.0013232
13 *4:39 0.0108686
14 *4:37 0.0101306
15 *4:35 0.00223861
16 *4:33 0.00223861
17 *4:19 0.0212512
18 *4:17 0.0231664
19 *4:9 0.0256146
20 *4:7 0.0232277
21 *4:5 0.021888
22 *600:io_in[7] *331:13 0
23 *600:io_in[7] *374:13 0.0111099
24 *601:io_in[7] *5:29 0.000182882
25 *4:17 *45:13 0
26 *4:17 *80:9 0
27 *4:19 *5:29 0.106779
28 *4:35 *11:67 0.0275943
29 *4:39 *423:19 0.00614365
30 *4:55 *35:61 0
31 *4:55 *35:80 0.00425263
32 *4:55 *36:70 0.00198627
33 *4:55 *37:46 0.00119664
34 *4:55 *38:48 0.00513947
35 *4:55 *38:56 0.000110204
36 *4:55 *38:60 0.00084591
37 *4:59 *601:wb_clk_i 0
38 *4:59 *34:23 0.000583571
39 *4:59 *34:31 0
40 *4:59 *34:47 0
41 *4:59 *313:53 0
42 *4:59 *313:69 0
43 *4:75 *599:blinker_do[1] 0.0014417
44 *4:75 *599:io_in[23] 9.74197e-05
45 *4:75 *5:59 0.000295515
46 *4:75 *8:57 0.0108423
47 *4:75 *16:19 0.00403864
48 *4:75 *21:21 0.000770581
49 *4:75 *33:13 0
50 *4:75 *103:9 0.00458046
51 *601:io_in[5] *4:35 0.000501328
52 *2:13 *4:75 0
53 *2:17 *4:75 0
54 *2:19 *4:75 0.0142715
55 *2:37 *4:35 0.0163276
56 *2:59 *4:59 0
57 *2:77 *4:59 0
58 *3:23 *4:17 0.000828328
59 *3:23 *4:19 0.000198733
60 *3:23 *4:75 0
61 *3:39 *4:35 0.000213918
62 *3:57 *4:59 0.0802845
63 *3:81 *4:75 0.116395
*RES
1 io_in[12] *4:5 155.23 
2 *4:5 *4:7 4.5 
3 *4:7 *4:9 158.46 
4 *4:9 *4:17 26.936 
5 *4:17 *4:19 267.596 
6 *4:19 *601:io_in[7] 3.306 
7 *4:19 *4:33 4.5 
8 *4:33 *4:35 67.564 
9 *4:35 *4:37 4.5 
10 *4:37 *4:39 67.868 
11 *4:39 *4:43 9.44 
12 *4:43 *602:io_in_1[7] 4.066 
13 *4:43 *4:53 4.5 
14 *4:53 *4:55 66.348 
15 *4:55 *4:57 4.5 
16 *4:57 *4:59 197.98 
17 *4:59 *600:io_in[7] 45.594 
18 *4:17 *4:73 4.5 
19 *4:73 *4:75 284.316 
20 *4:75 *599:io_in[12] 8.49 
*END

*D_NET *5 0.781495
*CONN
*P io_in[13] I
*I *599:io_in[13] I *D multiplexer
*I *601:io_in[8] I *D wrapped_qcpu
*I *600:io_in[8] I *D wrapped_sid
*CAP
1 io_in[13] 0.00105204
2 *599:io_in[13] 0.000855145
3 *601:io_in[8] 0.000488493
4 *600:io_in[8] 0.00345989
5 *5:59 0.00414064
6 *5:57 0.00328549
7 *5:37 0.00777361
8 *5:35 0.00431373
9 *5:33 0.0212425
10 *5:31 0.021731
11 *5:29 0.0207288
12 *5:27 0.020982
13 *5:21 0.00101238
14 *5:13 0.0161433
15 *5:11 0.0153842
16 *5:9 0.0321249
17 *5:7 0.0331769
18 *601:io_in[8] *8:41 0.000898232
19 *601:io_in[8] *524:13 0
20 *5:7 *6:13 0
21 *5:9 *38:11 0.000318749
22 *5:9 *44:17 0.0200518
23 *5:13 *33:13 0
24 *5:13 *77:9 0.0137522
25 *5:13 *99:9 0.000584696
26 *5:21 *77:9 0.00187968
27 *5:33 *601:custom_settings[31] 0.00523121
28 *5:33 *8:41 0.0920673
29 *5:33 *524:13 0
30 *5:37 *599:wbs_dat_i[10] 0.00746187
31 *5:37 *359:13 0.00344477
32 *5:37 *365:13 0.0412632
33 *5:59 *599:io_in[14] 0.000211422
34 *5:59 *599:io_in[15] 9.71389e-05
35 *5:59 *8:57 0.1402
36 *5:59 *9:37 0.12339
37 *5:59 *15:19 0.000202409
38 *5:59 *16:19 0.000215706
39 *5:59 *38:89 0.00046722
40 *601:io_in[7] *5:29 0.000182882
41 *3:23 *5:29 8.55327e-05
42 *3:81 *5:59 0.0145198
43 *4:19 *5:29 0.106779
44 *4:75 *5:59 0.000295515
*RES
1 io_in[13] *5:7 11.53 
2 *5:7 *5:9 220.172 
3 *5:9 *5:11 4.5 
4 *5:11 *5:13 151.696 
5 *5:13 *5:21 11.2884 
6 *5:21 *5:27 10.1916 
7 *5:27 *5:29 266.988 
8 *5:29 *5:31 4.5 
9 *5:31 *5:33 258.476 
10 *5:33 *5:35 4.5 
11 *5:35 *5:37 102.22 
12 *5:37 *600:io_in[8] 25.21 
13 *5:31 *601:io_in[8] 8.718 
14 *5:21 *5:57 4.5 
15 *5:57 *5:59 118.223 
16 *5:59 *599:io_in[13] 17.6176 
*END

*D_NET *6 0.680595
*CONN
*P io_in[14] I
*I *599:io_in[14] I *D multiplexer
*I *600:io_in[9] I *D wrapped_sid
*I *601:io_in[9] I *D wrapped_qcpu
*CAP
1 io_in[14] 0.0011981
2 *599:io_in[14] 0.00308356
3 *600:io_in[9] 0.000856645
4 *601:io_in[9] 0.00171677
5 *6:57 0.0160856
6 *6:55 0.0160614
7 *6:49 0.00506619
8 *6:39 0.00232443
9 *6:37 0.00162582
10 *6:33 0.00216489
11 *6:31 0.00952012
12 *6:29 0.00952012
13 *6:21 0.00544955
14 *6:17 0.0721255
15 *6:15 0.0683928
16 *6:13 0.0215091
17 *6:11 0.0215091
18 *6:9 0.00773958
19 *6:7 0.00893768
20 *599:io_in[14] *599:io_in[15] 0.0155803
21 *599:io_in[14] *13:19 0.000300919
22 *599:io_in[14] *15:19 0.000400106
23 *599:io_in[14] *16:19 0.000240154
24 *599:io_in[14] *21:21 0.000424724
25 *6:31 *7:27 0.113743
26 *6:31 *473:9 0.000293896
27 *6:31 *474:9 0.0681794
28 *6:31 *561:7 7.52388e-05
29 *6:37 *600:io_in[27] 0.0011049
30 *6:37 *600:io_in[28] 0.000495494
31 *6:37 *26:31 0.00221496
32 *6:37 *27:55 0.00105717
33 *6:39 *600:io_in[27] 0.00453172
34 *6:39 *600:io_in[28] 0.00930472
35 *6:39 *7:31 0.00118372
36 *6:39 *329:13 0.00101269
37 *6:39 *393:17 0.00264724
38 *6:39 *396:17 0.000434361
39 *6:39 *401:25 0.0220945
40 *6:39 *404:21 0.0216692
41 *6:49 *26:31 0.03049
42 *6:49 *27:53 0.0057635
43 *6:49 *27:55 0.00151402
44 *6:49 *329:13 0.00221325
45 *6:49 *549:13 0.000220273
46 *6:49 *553:19 0.00027748
47 *6:55 *403:15 3.59198e-05
48 *6:55 *547:23 0.014583
49 *6:55 *552:29 0.000159825
50 *6:57 *42:9 0
51 *6:57 *43:9 0
52 *6:57 *61:9 0
53 *6:57 *70:9 0.0195376
54 *6:57 *74:11 0
55 *6:57 *544:8 9.46863e-05
56 *6:57 *549:21 0.0633832
57 *6:57 *551:21 0
58 *2:19 *599:io_in[14] 0.000235925
59 *5:7 *6:13 0
60 *5:59 *599:io_in[14] 0.000211422
*RES
1 io_in[14] *6:7 11.226 
2 *6:7 *6:9 52.82 
3 *6:9 *6:11 4.5 
4 *6:11 *6:13 153.14 
5 *6:13 *6:15 4.5 
6 *6:15 *6:17 459.496 
7 *6:17 *6:21 24.548 
8 *6:21 *601:io_in[9] 10.07 
9 *6:21 *6:29 4.5 
10 *6:29 *6:31 278.236 
11 *6:31 *6:33 4.5 
12 *6:33 *6:37 8.436 
13 *6:37 *6:39 98.192 
14 *6:39 *600:io_in[9] 9.554 
15 *6:33 *6:49 75.62 
16 *6:49 *6:55 46.316 
17 *6:55 *6:57 183.526 
18 *6:57 *599:io_in[14] 34.1722 
*END

*D_NET *7 0.713288
*CONN
*P io_in[15] I
*I *601:io_in[10] I *D wrapped_qcpu
*I *599:io_in[15] I *D multiplexer
*I *600:io_in[10] I *D wrapped_sid
*CAP
1 io_in[15] 0.00338428
2 *601:io_in[10] 0.00167756
3 *599:io_in[15] 0.00342598
4 *600:io_in[10] 0.000746227
5 *7:53 0.00479271
6 *7:51 0.00185691
7 *7:45 0.00274194
8 *7:43 0.00239861
9 *7:31 0.00630211
10 *7:29 0.00570274
11 *7:27 0.0257769
12 *7:25 0.0279608
13 *7:17 0.011045
14 *7:15 0.0105387
15 *7:13 0.0836351
16 *7:11 0.0870194
17 *599:io_in[15] *9:57 0.000524752
18 *601:io_in[10] *601:io_in[11] 0
19 *601:io_in[10] *8:29 0
20 *7:17 *515:23 0.0461049
21 *7:25 *8:29 0.00187464
22 *7:25 *474:9 0.000193185
23 *7:27 *10:59 0
24 *7:27 *474:9 0.000373528
25 *7:27 *561:7 3.32987e-05
26 *7:31 *600:io_in[26] 0.013634
27 *7:31 *600:io_in[27] 0.00808753
28 *7:31 *9:67 0
29 *7:31 *25:39 0.00211044
30 *7:31 *26:31 0.00101762
31 *7:31 *396:17 0.0218935
32 *7:43 *25:39 0.00320713
33 *7:43 *26:31 0.00152903
34 *7:45 *599:wbs_adr_i[28] 0.00140284
35 *7:45 *599:wbs_adr_i[29] 0
36 *7:45 *25:39 0.0206488
37 *7:45 *26:31 0.0409094
38 *7:45 *329:13 0.000201508
39 *7:45 *553:19 0.000653651
40 *7:45 *553:23 0.000107092
41 *7:51 *15:27 4.47565e-05
42 *7:51 *25:17 0.00202302
43 *7:51 *25:37 0.0133023
44 *7:51 *39:13 0.0147359
45 *7:51 *406:13 0.000324831
46 *7:53 *71:9 0.00525587
47 *7:53 *72:9 0.00615347
48 *7:53 *73:11 0.000450038
49 *7:53 *75:9 0.046635
50 *7:53 *76:9 0.0480052
51 *7:53 *551:21 0.00224163
52 *599:io_in[14] *599:io_in[15] 0.0155803
53 *5:59 *599:io_in[15] 9.71389e-05
54 *6:31 *7:27 0.113743
55 *6:39 *7:31 0.00118372
*RES
1 io_in[15] *7:11 33.282 
2 *7:11 *7:13 569.924 
3 *7:13 *7:15 4.5 
4 *7:15 *7:17 124.412 
5 *7:17 *7:25 14.776 
6 *7:25 *7:27 280.516 
7 *7:27 *7:29 4.5 
8 *7:29 *7:31 102.22 
9 *7:31 *600:io_in[10] 8.946 
10 *7:29 *7:43 8.284 
11 *7:43 *7:45 111.264 
12 *7:45 *7:51 47.684 
13 *7:51 *7:53 139.81 