*SPEF "ieee 1481-1999"
*DESIGN "user_project_wrapper"
*DATE "11:11:11 Fri 11 11, 1111"
*VENDOR "OpenRCX"
*PROGRAM "Parallel Extraction"
*VERSION "1.0"
*DESIGN_FLOW "NAME_SCOPE LOCAL" "PIN_CAP NONE"
*DIVIDER /
*DELIMITER :
*BUS_DELIMITER []
*T_UNIT 1 NS
*C_UNIT 1 PF
*R_UNIT 1 OHM
*L_UNIT 1 HENRY

*NAME_MAP
*1 io_in[0]
*2 io_in[10]
*3 io_in[11]
*4 io_in[12]
*5 io_in[13]
*6 io_in[14]
*7 io_in[15]
*8 io_in[16]
*9 io_in[17]
*10 io_in[18]
*11 io_in[19]
*12 io_in[1]
*13 io_in[20]
*14 io_in[21]
*15 io_in[22]
*16 io_in[23]
*17 io_in[24]
*18 io_in[25]
*19 io_in[26]
*20 io_in[27]
*21 io_in[28]
*22 io_in[29]
*23 io_in[2]
*24 io_in[30]
*25 io_in[31]
*26 io_in[32]
*27 io_in[33]
*28 io_in[34]
*29 io_in[35]
*30 io_in[36]
*31 io_in[37]
*32 io_in[3]
*33 io_in[4]
*34 io_in[5]
*35 io_in[6]
*36 io_in[7]
*37 io_in[8]
*38 io_in[9]
*39 io_oeb[0]
*40 io_oeb[10]
*41 io_oeb[11]
*42 io_oeb[12]
*43 io_oeb[13]
*44 io_oeb[14]
*45 io_oeb[15]
*46 io_oeb[16]
*47 io_oeb[17]
*48 io_oeb[18]
*49 io_oeb[19]
*50 io_oeb[1]
*51 io_oeb[20]
*52 io_oeb[21]
*53 io_oeb[22]
*54 io_oeb[23]
*55 io_oeb[24]
*56 io_oeb[25]
*57 io_oeb[26]
*58 io_oeb[27]
*59 io_oeb[28]
*60 io_oeb[29]
*61 io_oeb[2]
*62 io_oeb[30]
*63 io_oeb[31]
*64 io_oeb[32]
*65 io_oeb[33]
*66 io_oeb[34]
*67 io_oeb[35]
*68 io_oeb[36]
*69 io_oeb[37]
*70 io_oeb[3]
*71 io_oeb[4]
*72 io_oeb[5]
*73 io_oeb[6]
*74 io_oeb[7]
*75 io_oeb[8]
*76 io_oeb[9]
*77 io_out[0]
*78 io_out[10]
*79 io_out[11]
*80 io_out[12]
*81 io_out[13]
*82 io_out[14]
*83 io_out[15]
*84 io_out[16]
*85 io_out[17]
*86 io_out[18]
*87 io_out[19]
*88 io_out[1]
*89 io_out[20]
*90 io_out[21]
*91 io_out[22]
*92 io_out[23]
*93 io_out[24]
*94 io_out[25]
*95 io_out[26]
*96 io_out[27]
*97 io_out[28]
*98 io_out[29]
*99 io_out[2]
*100 io_out[30]
*101 io_out[31]
*102 io_out[32]
*103 io_out[33]
*104 io_out[34]
*105 io_out[35]
*106 io_out[36]
*107 io_out[37]
*108 io_out[3]
*109 io_out[4]
*110 io_out[5]
*111 io_out[6]
*112 io_out[7]
*113 io_out[8]
*114 io_out[9]
*115 la_data_in[0]
*116 la_data_in[10]
*117 la_data_in[11]
*118 la_data_in[12]
*119 la_data_in[13]
*120 la_data_in[14]
*121 la_data_in[15]
*122 la_data_in[16]
*123 la_data_in[17]
*124 la_data_in[18]
*125 la_data_in[19]
*126 la_data_in[1]
*127 la_data_in[20]
*128 la_data_in[21]
*129 la_data_in[22]
*130 la_data_in[23]
*131 la_data_in[24]
*132 la_data_in[25]
*133 la_data_in[26]
*134 la_data_in[27]
*135 la_data_in[28]
*136 la_data_in[29]
*137 la_data_in[2]
*138 la_data_in[30]
*139 la_data_in[31]
*140 la_data_in[32]
*141 la_data_in[33]
*142 la_data_in[34]
*143 la_data_in[35]
*144 la_data_in[36]
*145 la_data_in[37]
*146 la_data_in[38]
*147 la_data_in[39]
*148 la_data_in[3]
*149 la_data_in[40]
*150 la_data_in[41]
*151 la_data_in[42]
*152 la_data_in[43]
*153 la_data_in[44]
*154 la_data_in[45]
*155 la_data_in[46]
*156 la_data_in[47]
*157 la_data_in[48]
*158 la_data_in[49]
*159 la_data_in[4]
*160 la_data_in[50]
*161 la_data_in[51]
*162 la_data_in[52]
*163 la_data_in[53]
*164 la_data_in[54]
*165 la_data_in[55]
*166 la_data_in[56]
*167 la_data_in[57]
*168 la_data_in[58]
*169 la_data_in[59]
*170 la_data_in[5]
*171 la_data_in[60]
*172 la_data_in[61]
*173 la_data_in[62]
*174 la_data_in[63]
*175 la_data_in[6]
*176 la_data_in[7]
*177 la_data_in[8]
*178 la_data_in[9]
*179 la_data_out[0]
*180 la_data_out[10]
*181 la_data_out[11]
*182 la_data_out[12]
*183 la_data_out[13]
*184 la_data_out[14]
*185 la_data_out[15]
*186 la_data_out[16]
*187 la_data_out[17]
*188 la_data_out[18]
*189 la_data_out[19]
*190 la_data_out[1]
*191 la_data_out[20]
*192 la_data_out[21]
*193 la_data_out[22]
*194 la_data_out[23]
*195 la_data_out[24]
*196 la_data_out[25]
*197 la_data_out[26]
*198 la_data_out[27]
*199 la_data_out[28]
*200 la_data_out[29]
*201 la_data_out[2]
*202 la_data_out[30]
*203 la_data_out[31]
*204 la_data_out[32]
*205 la_data_out[33]
*206 la_data_out[34]
*207 la_data_out[35]
*208 la_data_out[36]
*209 la_data_out[37]
*210 la_data_out[38]
*211 la_data_out[39]
*212 la_data_out[3]
*213 la_data_out[40]
*214 la_data_out[41]
*215 la_data_out[42]
*216 la_data_out[43]
*217 la_data_out[44]
*218 la_data_out[45]
*219 la_data_out[46]
*220 la_data_out[47]
*221 la_data_out[48]
*222 la_data_out[49]
*223 la_data_out[4]
*224 la_data_out[50]
*225 la_data_out[51]
*226 la_data_out[52]
*227 la_data_out[53]
*228 la_data_out[54]
*229 la_data_out[55]
*230 la_data_out[56]
*231 la_data_out[57]
*232 la_data_out[58]
*233 la_data_out[59]
*234 la_data_out[5]
*235 la_data_out[60]
*236 la_data_out[61]
*237 la_data_out[62]
*238 la_data_out[63]
*239 la_data_out[6]
*240 la_data_out[7]
*241 la_data_out[8]
*242 la_data_out[9]
*243 la_oenb[0]
*244 la_oenb[10]
*245 la_oenb[11]
*246 la_oenb[12]
*247 la_oenb[13]
*248 la_oenb[14]
*249 la_oenb[15]
*250 la_oenb[16]
*251 la_oenb[17]
*252 la_oenb[18]
*253 la_oenb[19]
*254 la_oenb[1]
*255 la_oenb[20]
*256 la_oenb[21]
*257 la_oenb[22]
*258 la_oenb[23]
*259 la_oenb[24]
*260 la_oenb[25]
*261 la_oenb[26]
*262 la_oenb[27]
*263 la_oenb[28]
*264 la_oenb[29]
*265 la_oenb[2]
*266 la_oenb[30]
*267 la_oenb[31]
*268 la_oenb[32]
*269 la_oenb[33]
*270 la_oenb[34]
*271 la_oenb[35]
*272 la_oenb[36]
*273 la_oenb[37]
*274 la_oenb[38]
*275 la_oenb[39]
*276 la_oenb[3]
*277 la_oenb[40]
*278 la_oenb[41]
*279 la_oenb[42]
*280 la_oenb[43]
*281 la_oenb[44]
*282 la_oenb[45]
*283 la_oenb[46]
*284 la_oenb[47]
*285 la_oenb[48]
*286 la_oenb[49]
*287 la_oenb[4]
*288 la_oenb[50]
*289 la_oenb[51]
*290 la_oenb[52]
*291 la_oenb[53]
*292 la_oenb[54]
*293 la_oenb[55]
*294 la_oenb[56]
*295 la_oenb[57]
*296 la_oenb[58]
*297 la_oenb[59]
*298 la_oenb[5]
*299 la_oenb[60]
*300 la_oenb[61]
*301 la_oenb[62]
*302 la_oenb[63]
*303 la_oenb[6]
*304 la_oenb[7]
*305 la_oenb[8]
*306 la_oenb[9]
*307 user_clock2
*308 user_irq[0]
*309 user_irq[1]
*310 user_irq[2]
*313 wb_clk_i
*314 wb_rst_i
*315 wbs_ack_o
*316 wbs_adr_i[0]
*317 wbs_adr_i[10]
*318 wbs_adr_i[11]
*319 wbs_adr_i[12]
*320 wbs_adr_i[13]
*321 wbs_adr_i[14]
*322 wbs_adr_i[15]
*323 wbs_adr_i[16]
*324 wbs_adr_i[17]
*325 wbs_adr_i[18]
*326 wbs_adr_i[19]
*327 wbs_adr_i[1]
*328 wbs_adr_i[20]
*329 wbs_adr_i[21]
*330 wbs_adr_i[22]
*331 wbs_adr_i[23]
*332 wbs_adr_i[24]
*333 wbs_adr_i[25]
*334 wbs_adr_i[26]
*335 wbs_adr_i[27]
*336 wbs_adr_i[28]
*337 wbs_adr_i[29]
*338 wbs_adr_i[2]
*339 wbs_adr_i[30]
*340 wbs_adr_i[31]
*341 wbs_adr_i[3]
*342 wbs_adr_i[4]
*343 wbs_adr_i[5]
*344 wbs_adr_i[6]
*345 wbs_adr_i[7]
*346 wbs_adr_i[8]
*347 wbs_adr_i[9]
*348 wbs_cyc_i
*349 wbs_dat_i[0]
*350 wbs_dat_i[10]
*351 wbs_dat_i[11]
*352 wbs_dat_i[12]
*353 wbs_dat_i[13]
*354 wbs_dat_i[14]
*355 wbs_dat_i[15]
*356 wbs_dat_i[16]
*357 wbs_dat_i[17]
*358 wbs_dat_i[18]
*359 wbs_dat_i[19]
*360 wbs_dat_i[1]
*361 wbs_dat_i[20]
*362 wbs_dat_i[21]
*363 wbs_dat_i[22]
*364 wbs_dat_i[23]
*365 wbs_dat_i[24]
*366 wbs_dat_i[25]
*367 wbs_dat_i[26]
*368 wbs_dat_i[27]
*369 wbs_dat_i[28]
*370 wbs_dat_i[29]
*371 wbs_dat_i[2]
*372 wbs_dat_i[30]
*373 wbs_dat_i[31]
*374 wbs_dat_i[3]
*375 wbs_dat_i[4]
*376 wbs_dat_i[5]
*377 wbs_dat_i[6]
*378 wbs_dat_i[7]
*379 wbs_dat_i[8]
*380 wbs_dat_i[9]
*381 wbs_dat_o[0]
*382 wbs_dat_o[10]
*383 wbs_dat_o[11]
*384 wbs_dat_o[12]
*385 wbs_dat_o[13]
*386 wbs_dat_o[14]
*387 wbs_dat_o[15]
*388 wbs_dat_o[16]
*389 wbs_dat_o[17]
*390 wbs_dat_o[18]
*391 wbs_dat_o[19]
*392 wbs_dat_o[1]
*393 wbs_dat_o[20]
*394 wbs_dat_o[21]
*395 wbs_dat_o[22]
*396 wbs_dat_o[23]
*397 wbs_dat_o[24]
*398 wbs_dat_o[25]
*399 wbs_dat_o[26]
*400 wbs_dat_o[27]
*401 wbs_dat_o[28]
*402 wbs_dat_o[29]
*403 wbs_dat_o[2]
*404 wbs_dat_o[30]
*405 wbs_dat_o[31]
*406 wbs_dat_o[3]
*407 wbs_dat_o[4]
*408 wbs_dat_o[5]
*409 wbs_dat_o[6]
*410 wbs_dat_o[7]
*411 wbs_dat_o[8]
*412 wbs_dat_o[9]
*413 wbs_sel_i[0]
*414 wbs_sel_i[1]
*415 wbs_sel_i[2]
*416 wbs_sel_i[3]
*417 wbs_stb_i
*418 wbs_we_i
*419 blinker_do\[0\]
*420 blinker_do\[1\]
*421 blinker_do\[2\]
*422 custom_settings\[0\]
*423 custom_settings\[10\]
*424 custom_settings\[11\]
*425 custom_settings\[12\]
*426 custom_settings\[13\]
*427 custom_settings\[14\]
*428 custom_settings\[15\]
*429 custom_settings\[16\]
*430 custom_settings\[17\]
*431 custom_settings\[18\]
*432 custom_settings\[19\]
*433 custom_settings\[1\]
*434 custom_settings\[20\]
*435 custom_settings\[21\]
*436 custom_settings\[22\]
*437 custom_settings\[23\]
*438 custom_settings\[24\]
*439 custom_settings\[25\]
*440 custom_settings\[26\]
*441 custom_settings\[27\]
*442 custom_settings\[28\]
*443 custom_settings\[29\]
*444 custom_settings\[2\]
*445 custom_settings\[30\]
*446 custom_settings\[31\]
*447 custom_settings\[3\]
*448 custom_settings\[4\]
*449 custom_settings\[5\]
*450 custom_settings\[6\]
*451 custom_settings\[7\]
*452 custom_settings\[8\]
*453 custom_settings\[9\]
*454 mc14500_do\[0\]
*455 mc14500_do\[10\]
*456 mc14500_do\[11\]
*457 mc14500_do\[12\]
*458 mc14500_do\[13\]
*459 mc14500_do\[14\]
*460 mc14500_do\[15\]
*461 mc14500_do\[16\]
*462 mc14500_do\[17\]
*463 mc14500_do\[18\]
*464 mc14500_do\[19\]
*465 mc14500_do\[1\]
*466 mc14500_do\[20\]
*467 mc14500_do\[21\]
*468 mc14500_do\[22\]
*469 mc14500_do\[23\]
*470 mc14500_do\[24\]
*471 mc14500_do\[25\]
*472 mc14500_do\[26\]
*473 mc14500_do\[27\]
*474 mc14500_do\[28\]
*475 mc14500_do\[29\]
*476 mc14500_do\[2\]
*477 mc14500_do\[30\]
*478 mc14500_do\[3\]
*479 mc14500_do\[4\]
*480 mc14500_do\[5\]
*481 mc14500_do\[6\]
*482 mc14500_do\[7\]
*483 mc14500_do\[8\]
*484 mc14500_do\[9\]
*485 mc14500_sram_addr\[0\]
*486 mc14500_sram_addr\[1\]
*487 mc14500_sram_addr\[2\]
*488 mc14500_sram_addr\[3\]
*489 mc14500_sram_addr\[4\]
*490 mc14500_sram_addr\[5\]
*491 mc14500_sram_gwe
*492 mc14500_sram_in\[0\]
*493 mc14500_sram_in\[1\]
*494 mc14500_sram_in\[2\]
*495 mc14500_sram_in\[3\]
*496 mc14500_sram_in\[4\]
*497 mc14500_sram_in\[5\]
*498 mc14500_sram_in\[6\]
*499 mc14500_sram_in\[7\]
*500 qcpu_do\[0\]
*501 qcpu_do\[10\]
*502 qcpu_do\[11\]
*503 qcpu_do\[12\]
*504 qcpu_do\[13\]
*505 qcpu_do\[14\]
*506 qcpu_do\[15\]
*507 qcpu_do\[16\]
*508 qcpu_do\[17\]
*509 qcpu_do\[18\]
*510 qcpu_do\[19\]
*511 qcpu_do\[1\]
*512 qcpu_do\[20\]
*513 qcpu_do\[21\]
*514 qcpu_do\[22\]
*515 qcpu_do\[23\]
*516 qcpu_do\[24\]
*517 qcpu_do\[25\]
*518 qcpu_do\[26\]
*519 qcpu_do\[27\]
*520 qcpu_do\[28\]
*521 qcpu_do\[29\]
*522 qcpu_do\[2\]
*523 qcpu_do\[30\]
*524 qcpu_do\[31\]
*525 qcpu_do\[32\]
*526 qcpu_do\[3\]
*527 qcpu_do\[4\]
*528 qcpu_do\[5\]
*529 qcpu_do\[6\]
*530 qcpu_do\[7\]
*531 qcpu_do\[8\]
*532 qcpu_do\[9\]
*533 qcpu_oeb\[0\]
*534 qcpu_oeb\[10\]
*535 qcpu_oeb\[11\]
*536 qcpu_oeb\[12\]
*537 qcpu_oeb\[13\]
*538 qcpu_oeb\[14\]
*539 qcpu_oeb\[15\]
*540 qcpu_oeb\[16\]
*541 qcpu_oeb\[17\]
*542 qcpu_oeb\[18\]
*543 qcpu_oeb\[19\]
*544 qcpu_oeb\[1\]
*545 qcpu_oeb\[20\]
*546 qcpu_oeb\[21\]
*547 qcpu_oeb\[22\]
*548 qcpu_oeb\[23\]
*549 qcpu_oeb\[24\]
*550 qcpu_oeb\[25\]
*551 qcpu_oeb\[26\]
*552 qcpu_oeb\[27\]
*553 qcpu_oeb\[28\]
*554 qcpu_oeb\[29\]
*555 qcpu_oeb\[2\]
*556 qcpu_oeb\[30\]
*557 qcpu_oeb\[31\]
*558 qcpu_oeb\[32\]
*559 qcpu_oeb\[3\]
*560 qcpu_oeb\[4\]
*561 qcpu_oeb\[5\]
*562 qcpu_oeb\[6\]
*563 qcpu_oeb\[7\]
*564 qcpu_oeb\[8\]
*565 qcpu_oeb\[9\]
*566 qcpu_sram_addr\[0\]
*567 qcpu_sram_addr\[1\]
*568 qcpu_sram_addr\[2\]
*569 qcpu_sram_addr\[3\]
*570 qcpu_sram_addr\[4\]
*571 qcpu_sram_addr\[5\]
*572 qcpu_sram_gwe
*573 qcpu_sram_in\[0\]
*574 qcpu_sram_in\[1\]
*575 qcpu_sram_in\[2\]
*576 qcpu_sram_in\[3\]
*577 qcpu_sram_in\[4\]
*578 qcpu_sram_in\[5\]
*579 qcpu_sram_in\[6\]
*580 qcpu_sram_in\[7\]
*581 qcpu_sram_out\[0\]
*582 qcpu_sram_out\[1\]
*583 qcpu_sram_out\[2\]
*584 qcpu_sram_out\[3\]
*585 qcpu_sram_out\[4\]
*586 qcpu_sram_out\[5\]
*587 qcpu_sram_out\[6\]
*588 qcpu_sram_out\[7\]
*589 rst_blinker
*590 rst_mc14500
*591 rst_qcpu
*592 rst_sid
*593 rst_sn76489
*594 sid_do\[0\]
*595 sid_do\[10\]
*596 sid_do\[11\]
*597 sid_do\[12\]
*598 sid_do\[13\]
*599 sid_do\[14\]
*600 sid_do\[15\]
*601 sid_do\[16\]
*602 sid_do\[17\]
*603 sid_do\[18\]
*604 sid_do\[19\]
*605 sid_do\[1\]
*606 sid_do\[20\]
*607 sid_do\[2\]
*608 sid_do\[3\]
*609 sid_do\[4\]
*610 sid_do\[5\]
*611 sid_do\[6\]
*612 sid_do\[7\]
*613 sid_do\[8\]
*614 sid_do\[9\]
*615 sid_oeb
*616 sn76489_do\[0\]
*617 sn76489_do\[10\]
*618 sn76489_do\[11\]
*619 sn76489_do\[12\]
*620 sn76489_do\[13\]
*621 sn76489_do\[14\]
*622 sn76489_do\[15\]
*623 sn76489_do\[16\]
*624 sn76489_do\[17\]
*625 sn76489_do\[18\]
*626 sn76489_do\[19\]
*627 sn76489_do\[1\]
*628 sn76489_do\[20\]
*629 sn76489_do\[21\]
*630 sn76489_do\[22\]
*631 sn76489_do\[23\]
*632 sn76489_do\[24\]
*633 sn76489_do\[25\]
*634 sn76489_do\[26\]
*635 sn76489_do\[27\]
*636 sn76489_do\[2\]
*637 sn76489_do\[3\]
*638 sn76489_do\[4\]
*639 sn76489_do\[5\]
*640 sn76489_do\[6\]
*641 sn76489_do\[7\]
*642 sn76489_do\[8\]
*643 sn76489_do\[9\]
*644 avali_logo
*645 blinker
*646 mc14500
*647 multiplexer
*648 sid
*649 wrapped_qcpu
*650 wrapped_sn76489

*PORTS
io_in[0] I
io_in[10] I
io_in[11] I
io_in[12] I
io_in[13] I
io_in[14] I
io_in[15] I
io_in[16] I
io_in[17] I
io_in[18] I
io_in[19] I
io_in[1] I
io_in[20] I
io_in[21] I
io_in[22] I
io_in[23] I
io_in[24] I
io_in[25] I
io_in[26] I
io_in[27] I
io_in[28] I
io_in[29] I
io_in[2] I
io_in[30] I
io_in[31] I
io_in[32] I
io_in[33] I
io_in[34] I
io_in[35] I
io_in[36] I
io_in[37] I
io_in[3] I
io_in[4] I
io_in[5] I
io_in[6] I
io_in[7] I
io_in[8] I
io_in[9] I
io_oeb[0] O
io_oeb[10] O
io_oeb[11] O
io_oeb[12] O
io_oeb[13] O
io_oeb[14] O
io_oeb[15] O
io_oeb[16] O
io_oeb[17] O
io_oeb[18] O
io_oeb[19] O
io_oeb[1] O
io_oeb[20] O
io_oeb[21] O
io_oeb[22] O
io_oeb[23] O
io_oeb[24] O
io_oeb[25] O
io_oeb[26] O
io_oeb[27] O
io_oeb[28] O
io_oeb[29] O
io_oeb[2] O
io_oeb[30] O
io_oeb[31] O
io_oeb[32] O
io_oeb[33] O
io_oeb[34] O
io_oeb[35] O
io_oeb[36] O
io_oeb[37] O
io_oeb[3] O
io_oeb[4] O
io_oeb[5] O
io_oeb[6] O
io_oeb[7] O
io_oeb[8] O
io_oeb[9] O
io_out[0] O
io_out[10] O
io_out[11] O
io_out[12] O
io_out[13] O
io_out[14] O
io_out[15] O
io_out[16] O
io_out[17] O
io_out[18] O
io_out[19] O
io_out[1] O
io_out[20] O
io_out[21] O
io_out[22] O
io_out[23] O
io_out[24] O
io_out[25] O
io_out[26] O
io_out[27] O
io_out[28] O
io_out[29] O
io_out[2] O
io_out[30] O
io_out[31] O
io_out[32] O
io_out[33] O
io_out[34] O
io_out[35] O
io_out[36] O
io_out[37] O
io_out[3] O
io_out[4] O
io_out[5] O
io_out[6] O
io_out[7] O
io_out[8] O
io_out[9] O
la_data_in[0] I
la_data_in[10] I
la_data_in[11] I
la_data_in[12] I
la_data_in[13] I
la_data_in[14] I
la_data_in[15] I
la_data_in[16] I
la_data_in[17] I
la_data_in[18] I
la_data_in[19] I
la_data_in[1] I
la_data_in[20] I
la_data_in[21] I
la_data_in[22] I
la_data_in[23] I
la_data_in[24] I
la_data_in[25] I
la_data_in[26] I
la_data_in[27] I
la_data_in[28] I
la_data_in[29] I
la_data_in[2] I
la_data_in[30] I
la_data_in[31] I
la_data_in[32] I
la_data_in[33] I
la_data_in[34] I
la_data_in[35] I
la_data_in[36] I
la_data_in[37] I
la_data_in[38] I
la_data_in[39] I
la_data_in[3] I
la_data_in[40] I
la_data_in[41] I
la_data_in[42] I
la_data_in[43] I
la_data_in[44] I
la_data_in[45] I
la_data_in[46] I
la_data_in[47] I
la_data_in[48] I
la_data_in[49] I
la_data_in[4] I
la_data_in[50] I
la_data_in[51] I
la_data_in[52] I
la_data_in[53] I
la_data_in[54] I
la_data_in[55] I
la_data_in[56] I
la_data_in[57] I
la_data_in[58] I
la_data_in[59] I
la_data_in[5] I
la_data_in[60] I
la_data_in[61] I
la_data_in[62] I
la_data_in[63] I
la_data_in[6] I
la_data_in[7] I
la_data_in[8] I
la_data_in[9] I
la_data_out[0] O
la_data_out[10] O
la_data_out[11] O
la_data_out[12] O
la_data_out[13] O
la_data_out[14] O
la_data_out[15] O
la_data_out[16] O
la_data_out[17] O
la_data_out[18] O
la_data_out[19] O
la_data_out[1] O
la_data_out[20] O
la_data_out[21] O
la_data_out[22] O
la_data_out[23] O
la_data_out[24] O
la_data_out[25] O
la_data_out[26] O
la_data_out[27] O
la_data_out[28] O
la_data_out[29] O
la_data_out[2] O
la_data_out[30] O
la_data_out[31] O
la_data_out[32] O
la_data_out[33] O
la_data_out[34] O
la_data_out[35] O
la_data_out[36] O
la_data_out[37] O
la_data_out[38] O
la_data_out[39] O
la_data_out[3] O
la_data_out[40] O
la_data_out[41] O
la_data_out[42] O
la_data_out[43] O
la_data_out[44] O
la_data_out[45] O
la_data_out[46] O
la_data_out[47] O
la_data_out[48] O
la_data_out[49] O
la_data_out[4] O
la_data_out[50] O
la_data_out[51] O
la_data_out[52] O
la_data_out[53] O
la_data_out[54] O
la_data_out[55] O
la_data_out[56] O
la_data_out[57] O
la_data_out[58] O
la_data_out[59] O
la_data_out[5] O
la_data_out[60] O
la_data_out[61] O
la_data_out[62] O
la_data_out[63] O
la_data_out[6] O
la_data_out[7] O
la_data_out[8] O
la_data_out[9] O
la_oenb[0] I
la_oenb[10] I
la_oenb[11] I
la_oenb[12] I
la_oenb[13] I
la_oenb[14] I
la_oenb[15] I
la_oenb[16] I
la_oenb[17] I
la_oenb[18] I
la_oenb[19] I
la_oenb[1] I
la_oenb[20] I
la_oenb[21] I
la_oenb[22] I
la_oenb[23] I
la_oenb[24] I
la_oenb[25] I
la_oenb[26] I
la_oenb[27] I
la_oenb[28] I
la_oenb[29] I
la_oenb[2] I
la_oenb[30] I
la_oenb[31] I
la_oenb[32] I
la_oenb[33] I
la_oenb[34] I
la_oenb[35] I
la_oenb[36] I
la_oenb[37] I
la_oenb[38] I
la_oenb[39] I
la_oenb[3] I
la_oenb[40] I
la_oenb[41] I
la_oenb[42] I
la_oenb[43] I
la_oenb[44] I
la_oenb[45] I
la_oenb[46] I
la_oenb[47] I
la_oenb[48] I
la_oenb[49] I
la_oenb[4] I
la_oenb[50] I
la_oenb[51] I
la_oenb[52] I
la_oenb[53] I
la_oenb[54] I
la_oenb[55] I
la_oenb[56] I
la_oenb[57] I
la_oenb[58] I
la_oenb[59] I
la_oenb[5] I
la_oenb[60] I
la_oenb[61] I
la_oenb[62] I
la_oenb[63] I
la_oenb[6] I
la_oenb[7] I
la_oenb[8] I
la_oenb[9] I
user_clock2 I
user_irq[0] O
user_irq[1] O
user_irq[2] O
wb_clk_i I
wb_rst_i I
wbs_ack_o O
wbs_adr_i[0] I
wbs_adr_i[10] I
wbs_adr_i[11] I
wbs_adr_i[12] I
wbs_adr_i[13] I
wbs_adr_i[14] I
wbs_adr_i[15] I
wbs_adr_i[16] I
wbs_adr_i[17] I
wbs_adr_i[18] I
wbs_adr_i[19] I
wbs_adr_i[1] I
wbs_adr_i[20] I
wbs_adr_i[21] I
wbs_adr_i[22] I
wbs_adr_i[23] I
wbs_adr_i[24] I
wbs_adr_i[25] I
wbs_adr_i[26] I
wbs_adr_i[27] I
wbs_adr_i[28] I
wbs_adr_i[29] I
wbs_adr_i[2] I
wbs_adr_i[30] I
wbs_adr_i[31] I
wbs_adr_i[3] I
wbs_adr_i[4] I
wbs_adr_i[5] I
wbs_adr_i[6] I
wbs_adr_i[7] I
wbs_adr_i[8] I
wbs_adr_i[9] I
wbs_cyc_i I
wbs_dat_i[0] I
wbs_dat_i[10] I
wbs_dat_i[11] I
wbs_dat_i[12] I
wbs_dat_i[13] I
wbs_dat_i[14] I
wbs_dat_i[15] I
wbs_dat_i[16] I
wbs_dat_i[17] I
wbs_dat_i[18] I
wbs_dat_i[19] I
wbs_dat_i[1] I
wbs_dat_i[20] I
wbs_dat_i[21] I
wbs_dat_i[22] I
wbs_dat_i[23] I
wbs_dat_i[24] I
wbs_dat_i[25] I
wbs_dat_i[26] I
wbs_dat_i[27] I
wbs_dat_i[28] I
wbs_dat_i[29] I
wbs_dat_i[2] I
wbs_dat_i[30] I
wbs_dat_i[31] I
wbs_dat_i[3] I
wbs_dat_i[4] I
wbs_dat_i[5] I
wbs_dat_i[6] I
wbs_dat_i[7] I
wbs_dat_i[8] I
wbs_dat_i[9] I
wbs_dat_o[0] O
wbs_dat_o[10] O
wbs_dat_o[11] O
wbs_dat_o[12] O
wbs_dat_o[13] O
wbs_dat_o[14] O
wbs_dat_o[15] O
wbs_dat_o[16] O
wbs_dat_o[17] O
wbs_dat_o[18] O
wbs_dat_o[19] O
wbs_dat_o[1] O
wbs_dat_o[20] O
wbs_dat_o[21] O
wbs_dat_o[22] O
wbs_dat_o[23] O
wbs_dat_o[24] O
wbs_dat_o[25] O
wbs_dat_o[26] O
wbs_dat_o[27] O
wbs_dat_o[28] O
wbs_dat_o[29] O
wbs_dat_o[2] O
wbs_dat_o[30] O
wbs_dat_o[31] O
wbs_dat_o[3] O
wbs_dat_o[4] O
wbs_dat_o[5] O
wbs_dat_o[6] O
wbs_dat_o[7] O
wbs_dat_o[8] O
wbs_dat_o[9] O
wbs_sel_i[0] I
wbs_sel_i[1] I
wbs_sel_i[2] I
wbs_sel_i[3] I
wbs_stb_i I
wbs_we_i I

*D_NET *1 0.659492
*CONN
*P io_in[0] I
*I *647:io_in[0] I *D multiplexer
*CAP
1 io_in[0] 0.00579308
2 *647:io_in[0] 0.00125861
3 *1:13 0.00366537
4 *1:11 0.00240675
5 *1:9 0.0829183
6 *1:7 0.0829183
7 *1:5 0.00579308
8 *647:io_in[0] *647:io_in[1] 0
9 *1:13 *9:15 0.00850754
10 *1:13 *11:25 0
11 *1:13 *12:13 0.000705692
12 *1:13 *23:13 0.232869
13 *1:13 *29:149 0.000621837
14 *1:13 *32:13 0.232034
*RES
1 io_in[0] *1:5 50.18 
2 *1:5 *1:7 4.5 
3 *1:7 *1:9 692.536 
4 *1:9 *1:11 4.5 
5 *1:11 *1:13 590.2 
6 *1:13 *647:io_in[0] 12.04 
*END

*D_NET *2 0.817226
*CONN
*P io_in[10] I
*I *646:io_in[5] I *D wrapped_mc14500
*I *648:io_in[5] I *D wrapped_sid
*I *650:io_in_1[5] I *D wrapped_sn76489
*I *649:io_in[5] I *D wrapped_qcpu
*I *647:io_in[10] I *D multiplexer
*CAP
1 io_in[10] 0.0165962
2 *646:io_in[5] 0.000731386
3 *648:io_in[5] 0.00116398
4 *650:io_in_1[5] 0.000176926
5 *649:io_in[5] 0.000511203
6 *647:io_in[10] 0.00107743
7 *2:79 0.0197688
8 *2:77 0.0186048
9 *2:75 0.00421122
10 *2:73 0.00421122
11 *2:63 0.00776623
12 *2:61 0.00758931
13 *2:59 0.00771821
14 *2:57 0.00805511
15 *2:45 0.012467
16 *2:43 0.0116189
17 *2:41 0.00520191
18 *2:39 0.00748939
19 *2:35 0.00285799
20 *2:27 0.0199572
21 *2:25 0.0186553
22 *2:15 0.0260861
23 *2:13 0.0251352
24 *2:9 0.00578228
25 *2:7 0.00565574
26 *2:5 0.0165962
27 *647:io_in[10] *647:io_in[11] 0
28 *647:io_in[10] *647:io_in[9] 0
29 *648:io_in[5] *648:io_in[6] 0.0104488
30 *648:io_in[5] *4:89 0.0103704
31 *648:io_in[5] *326:13 0
32 *2:5 *8:9 3.7145e-05
33 *2:9 *3:35 2.04597e-06
34 *2:13 *3:21 0.000489387
35 *2:13 *3:23 0.000107648
36 *2:13 *4:13 0
37 *2:15 *647:io_in[22] 0.000533129
38 *2:15 *647:io_in[26] 0.000494711
39 *2:15 *3:23 0.187629
40 *2:15 *4:15 0
41 *2:15 *5:25 0.000334308
42 *2:15 *5:33 0.000112808
43 *2:15 *8:19 0.0172986
44 *2:15 *9:55 0.000934858
45 *2:15 *11:25 0.00803488
46 *2:15 *12:13 5.99851e-05
47 *2:15 *16:25 4.36433e-05
48 *2:15 *30:53 0.000556934
49 *2:15 *421:23 8.83549e-05
50 *2:15 *589:9 0.000188008
51 *2:15 *593:11 0.0034289
52 *2:27 *3:35 0.112723
53 *2:27 *37:11 0
54 *2:27 *38:31 0.000501259
55 *2:27 *38:35 2.3947e-05
56 *2:27 *590:17 0.00165133
57 *2:35 *646:io_in[4] 0
58 *2:35 *38:35 0.000472729
59 *2:39 *3:49 0.0139943
60 *2:41 *646:clk_i 7.42486e-05
61 *2:41 *646:sram_out[7] 0.000498205
62 *2:41 *35:23 0.000256727
63 *2:41 *488:11 0
64 *2:41 *489:11 0
65 *2:41 *494:15 0
66 *2:41 *581:13 0.000498212
67 *2:41 *588:13 0.0283232
68 *2:45 *488:13 0.00084268
69 *2:57 *4:63 0.0135247
70 *2:57 *19:47 0.00150075
71 *2:57 *35:41 0.00990318
72 *2:59 *37:54 0.0446555
73 *2:59 *439:9 0.00118259
74 *2:75 *3:89 0.0256382
75 *2:79 *648:io_in[0] 0.000513273
76 *2:79 *3:93 0
77 *2:79 *37:74 0.016273
78 *2:79 *313:61 0.00110279
79 *2:79 *313:75 0.046193
*RES
1 io_in[10] *2:5 143.78 
2 *2:5 *2:7 4.5 
3 *2:7 *2:9 45.656 
4 *2:9 *2:13 6.06 
5 *2:13 *2:15 474.344 
6 *2:15 *647:io_in[10] 10.376 
7 *2:13 *2:25 4.5 
8 *2:25 *2:27 295.464 
9 *2:27 *2:35 14.824 
10 *2:35 *2:39 40.588 
11 *2:39 *2:41 79.976 
12 *2:41 *2:43 4.5 
13 *2:43 *2:45 88.088 
14 *2:45 *649:io_in[5] 3.38 
15 *2:45 *2:57 43.424 
16 *2:57 *2:59 118.04 
17 *2:59 *2:61 4.5 
18 *2:61 *2:63 63.752 
19 *2:63 *650:io_in_1[5] 0.988 
20 *2:63 *2:73 4.5 
21 *2:73 *2:75 67.288 
22 *2:75 *2:77 4.5 
23 *2:77 *2:79 273.416 
24 *2:79 *648:io_in[5] 43.476 
25 *2:27 *646:io_in[5] 9.336 
*END

*D_NET *3 0.988828
*CONN
*P io_in[11] I
*I *648:io_in[6] I *D wrapped_sid
*I *650:io_in_1[6] I *D wrapped_sn76489
*I *649:io_in[6] I *D wrapped_qcpu
*I *646:io_in[6] I *D wrapped_mc14500
*I *647:io_in[11] I *D multiplexer
*CAP
1 io_in[11] 0.00220238
2 *648:io_in[6] 0.00259193
3 *650:io_in_1[6] 0.000203969
4 *649:io_in[6] 0.00048254
5 *646:io_in[6] 0.000247077
6 *647:io_in[11] 0.00112973
7 *3:93 0.00518379
8 *3:91 0.00259185
9 *3:89 0.000894827
10 *3:87 0.000894827
11 *3:77 0.00407583
12 *3:73 0.0168305
13 *3:71 0.0129586
14 *3:69 0.000672552
15 *3:67 0.000672552
16 *3:57 0.0114592
17 *3:55 0.0109767
18 *3:53 0.00424747
19 *3:51 0.00424747
20 *3:49 0.00145804
21 *3:47 0.00145804
22 *3:39 0.000661002
23 *3:35 0.00146012
24 *3:33 0.00104619
25 *3:23 0.0157875
26 *3:21 0.0149768
27 *3:17 0.0138375
28 *3:15 0.0135185
29 *3:13 0.0150147
30 *3:11 0.0172171
31 *647:io_in[11] *647:io_in[12] 0
32 *648:io_in[6] *4:89 0.000878113
33 *648:io_in[6] *326:13 0.000802944
34 *3:11 *6:13 0
35 *3:21 *4:13 0
36 *3:21 *12:13 0.000284639
37 *3:23 *5:25 0.0175465
38 *3:23 *12:13 0.0308558
39 *3:35 *4:27 0.110221
40 *3:35 *38:31 0.000809583
41 *3:35 *590:17 0.00071625
42 *3:49 *30:89 0.0164281
43 *3:53 *9:61 0.00583402
44 *3:53 *511:9 0.0276067
45 *3:69 *4:63 0.024654
46 *3:69 *11:73 0.0270449
47 *3:69 *19:47 0.000435255
48 *3:73 *432:9 0.00544338
49 *3:89 *4:79 0.0304051
50 *3:93 *648:io_in[0] 0.00812332
51 *3:93 *4:83 0.107883
52 *3:93 *34:83 2.76367e-05
53 *3:93 *37:74 0.0427956
54 *647:io_in[10] *647:io_in[11] 0
55 *648:io_in[5] *648:io_in[6] 0.0104488
56 *2:9 *3:35 2.04597e-06
57 *2:13 *3:21 0.000489387
58 *2:13 *3:23 0.000107648
59 *2:15 *3:23 0.187629
60 *2:27 *3:35 0.112723
61 *2:39 *3:49 0.0139943
62 *2:75 *3:89 0.0256382
63 *2:79 *3:93 0
*RES
1 io_in[11] *3:11 26.628 
2 *3:11 *3:13 130.52 
3 *3:13 *3:15 4.5 
4 *3:15 *3:17 111.8 
5 *3:17 *3:21 8.972 
6 *3:21 *3:23 472.472 
7 *3:23 *647:io_in[11] 10.584 
8 *3:21 *3:33 4.5 
9 *3:33 *3:35 290.68 
10 *3:35 *3:39 7.724 
11 *3:39 *646:io_in[6] 1.924 
12 *3:39 *3:47 4.5 
13 *3:47 *3:49 50.024 
14 *3:49 *3:51 4.5 
15 *3:51 *3:53 76.856 
16 *3:53 *3:55 4.5 
17 *3:55 *3:57 82.472 
18 *3:57 *649:io_in[6] 3.484 
19 *3:57 *3:67 4.5 
20 *3:67 *3:69 68.744 
21 *3:69 *3:71 4.5 
22 *3:71 *3:73 105.144 
23 *3:73 *3:77 37.052 
24 *3:77 *650:io_in_1[6] 1.196 
25 *3:77 *3:87 4.5 
26 *3:87 *3:89 78.312 
27 *3:89 *3:91 4.5 
28 *3:91 *3:93 273 
29 *3:93 *648:io_in[6] 47.636 
*END

*D_NET *4 0.822749
*CONN
*P io_in[12] I
*I *650:io_in_1[7] I *D wrapped_sn76489
*I *648:io_in[7] I *D wrapped_sid
*I *649:io_in[7] I *D wrapped_qcpu
*I *646:io_in[7] I *D wrapped_mc14500
*I *647:io_in[12] I *D multiplexer
*CAP
1 io_in[12] 0.0158905
2 *650:io_in_1[7] 0.000118684
3 *648:io_in[7] 0.000819097
4 *649:io_in[7] 0.000579498
5 *646:io_in[7] 0.000724923
6 *647:io_in[12] 0.000803396
7 *4:89 0.00353125
8 *4:83 0.0196144
9 *4:81 0.0169023
10 *4:79 0.00625847
11 *4:77 0.00631927
12 *4:71 0.00334085
13 *4:67 0.0146383
14 *4:65 0.0114769
15 *4:63 0.000768529
16 *4:61 0.000768529
17 *4:51 0.0111518
18 *4:49 0.0105723
19 *4:47 0.00431677
20 *4:45 0.00431677
21 *4:43 0.00688426
22 *4:41 0.00694465
23 *4:27 0.00309336
24 *4:25 0.00242882
25 *4:15 0.0466543
26 *4:13 0.0466667
27 *4:9 0.0241628
28 *4:7 0.0233469
29 *4:5 0.0158905
30 *647:io_in[12] *647:io_in[13] 0
31 *649:io_in[7] *649:io_in[8] 0
32 *4:13 *308:9 0
33 *4:15 *647:io_in[16] 0.000533724
34 *4:15 *647:mc14500_sram_in[7] 0.0117332
35 *4:15 *6:37 0.0103432
36 *4:15 *6:41 0.000997245
37 *4:15 *9:25 0.00415267
38 *4:15 *9:55 7.05907e-05
39 *4:15 *20:21 0
40 *4:15 *24:83 0.00473038
41 *4:15 *30:53 0.0196661
42 *4:15 *308:9 0
43 *4:15 *421:23 0.000158782
44 *4:15 *589:9 0.0195296
45 *4:27 *38:31 0.0998966
46 *4:27 *590:17 0.000576888
47 *4:43 *646:sram_out[7] 8.18984e-05
48 *4:43 *588:17 0
49 *4:47 *506:9 0.0280814
50 *4:51 *649:io_in[8] 0
51 *4:63 *11:73 0.000535146
52 *4:63 *19:47 0.00282834
53 *4:63 *35:41 0.00108301
54 *4:67 *434:9 0.00497783
55 *4:71 *428:13 0.00518226
56 *4:83 *648:io_in[0] 6.11661e-05
57 *4:83 *34:83 0.000492316
58 *4:83 *34:91 0.0001154
59 *4:89 *326:13 0
60 *647:io_in[11] *647:io_in[12] 0
61 *648:io_in[5] *4:89 0.0103704
62 *648:io_in[6] *4:89 0.000878113
63 *2:13 *4:13 0
64 *2:15 *4:15 0
65 *2:57 *4:63 0.0135247
66 *3:21 *4:13 0
67 *3:35 *4:27 0.110221
68 *3:69 *4:63 0.024654
69 *3:89 *4:79 0.0304051
70 *3:93 *4:83 0.107883
*RES
1 io_in[12] *4:5 137.54 
2 *4:5 *4:7 4.5 
3 *4:7 *4:9 194.376 
4 *4:9 *4:13 11.884 
5 *4:13 *4:15 470.6 
6 *4:15 *647:io_in[12] 8.92 
7 *4:13 *4:25 4.5 
8 *4:25 *4:27 284.024 
9 *4:27 *646:io_in[7] 9.752 
10 *646:io_in[7] *4:41 4.968 
11 *4:41 *4:43 57.512 
12 *4:43 *4:45 4.5 
13 *4:45 *4:47 70.824 
14 *4:47 *4:49 4.5 
15 *4:49 *4:51 79.352 
16 *4:51 *649:io_in[7] 4.316 
17 *4:51 *4:61 4.5 
18 *4:61 *4:63 65.624 
19 *4:63 *4:65 4.5 
20 *4:65 *4:67 92.872 
21 *4:67 *4:71 43.708 
22 *4:71 *4:77 5.124 
23 *4:77 *4:79 90.376 
24 *4:79 *4:81 4.5 
25 *4:81 *4:83 273.208 
26 *4:83 *4:89 46.544 
27 *4:89 *648:io_in[7] 5.876 
28 *4:71 *650:io_in_1[7] 1.092 
*END

*D_NET *5 1.03404
*CONN
*P io_in[13] I
*I *647:io_in[13] I *D multiplexer
*I *648:io_in[8] I *D wrapped_sid
*I *649:io_in[8] I *D wrapped_qcpu
*CAP
1 io_in[13] 0.0251892
2 *647:io_in[13] 0.000924181
3 *648:io_in[8] 0.000207907
4 *649:io_in[8] 0.0539779
5 *5:43 0.0152738
6 *5:41 0.0150659
7 *5:39 0.00268524
8 *5:35 0.0160658
9 *5:33 0.015459
10 *5:29 0.00353213
11 *5:25 0.00424841
12 *5:23 0.00379198
13 *5:9 0.0858786
14 *5:7 0.0318276
15 *5:5 0.0251892
16 *647:io_in[13] *647:io_in[14] 0
17 *649:io_in[8] *493:13 0
18 *5:25 *6:41 0.000375326
19 *5:25 *8:19 0.18596
20 *5:25 *9:15 0.165113
21 *5:25 *11:25 0.000294753
22 *5:25 *12:13 0.0013298
23 *5:25 *32:13 0.00120546
24 *5:29 *6:41 0.000528686
25 *5:29 *6:45 0.00100838
26 *5:29 *16:25 0.000101342
27 *5:29 *19:21 0.000126763
28 *5:33 *6:45 0.0175945
29 *5:33 *11:25 0.000186198
30 *5:33 *15:23 0.00117031
31 *5:33 *16:25 0.00124129
32 *5:33 *19:21 0.00154799
33 *5:35 *7:23 0.120411
34 *5:35 *9:27 1.59458e-05
35 *5:35 *11:29 0.00294771
36 *5:35 *76:9 0
37 *5:35 *472:13 0.0822998
38 *5:39 *381:13 0.0171447
39 *5:39 *610:21 0
40 *5:43 *647:wbs_adr_i[24] 0.000822363
41 *5:43 *6:55 0.0964691
42 *5:43 *28:31 0.000508244
43 *5:43 *29:121 0.00103841
44 *5:43 *347:13 0.00768995
45 *5:43 *594:6 0.00959336
46 *647:io_in[12] *647:io_in[13] 0
47 *649:io_in[7] *649:io_in[8] 0
48 *2:15 *5:25 0.000334308
49 *2:15 *5:33 0.000112808
50 *3:23 *5:25 0.0175465
51 *4:51 *649:io_in[8] 0
*RES
1 io_in[13] *5:5 220.324 
2 *5:5 *5:7 4.5 
3 *5:7 *5:9 266.136 
4 *5:9 *649:io_in[8] 426.036 
5 *5:9 *5:23 13.8231 
6 *5:23 *5:25 167.071 
7 *5:25 *5:29 2.00455 
8 *5:29 *5:33 20.0718 
9 *5:33 *5:35 308.468 
10 *5:35 *5:39 47.868 
11 *5:39 *5:41 4.5 
12 *5:41 *5:43 252.408 
13 *5:43 *648:io_in[8] 5.592 
14 *5:29 *647:io_in[13] 18.3397 
*END

*D_NET *6 0.937366
*CONN
*P io_in[14] I
*I *647:io_in[14] I *D multiplexer
*I *648:io_in[9] I *D wrapped_sid
*I *649:io_in[9] I *D wrapped_qcpu
*CAP
1 io_in[14] 0.00146141
2 *647:io_in[14] 0.000840849
3 *648:io_in[9] 0.000108596
4 *649:io_in[9] 0.0408611
5 *6:55 0.000611285
6 *6:53 0.000502688
7 *6:51 0.00290262
8 *6:49 0.00290262
9 *6:47 0.0202819
10 *6:45 0.0211138
11 *6:41 0.00332838
12 *6:37 0.0212164
13 *6:35 0.0196008
14 *6:21 0.0450115
15 *6:17 0.0189767
16 *6:15 0.0147862
17 *6:13 0.0237375
18 *6:11 0.0237375
19 *6:9 0.0260528
20 *6:7 0.0275142
21 *647:io_in[14] *647:io_in[15] 0
22 *649:io_in[9] *493:13 0.0215975
23 *6:9 *41:17 0.00401101
24 *6:17 *111:13 0
25 *6:21 *111:13 0
26 *6:21 *493:13 0
27 *6:21 *494:17 0
28 *6:37 *8:19 0.180948
29 *6:37 *30:53 0.00029541
30 *6:37 *310:15 0
31 *6:37 *421:23 0.00138052
32 *6:37 *589:9 0.00143744
33 *6:37 *593:11 0.0014839
34 *6:41 *647:io_in[22] 0.000156056
35 *6:41 *647:io_in[26] 0.00044094
36 *6:41 *7:17 0.00413003