*SPEF "ieee 1481-1999"
*DESIGN "user_project_wrapper"
*DATE "11:11:11 Fri 11 11, 1111"
*VENDOR "OpenRCX"
*PROGRAM "Parallel Extraction"
*VERSION "1.0"
*DESIGN_FLOW "NAME_SCOPE LOCAL" "PIN_CAP NONE"
*DIVIDER /
*DELIMITER :
*BUS_DELIMITER []
*T_UNIT 1 NS
*C_UNIT 1 PF
*R_UNIT 1 OHM
*L_UNIT 1 HENRY

*NAME_MAP
*1 io_in[0]
*2 io_in[10]
*3 io_in[11]
*4 io_in[12]
*5 io_in[13]
*6 io_in[14]
*7 io_in[15]
*8 io_in[16]
*9 io_in[17]
*10 io_in[18]
*11 io_in[19]
*12 io_in[1]
*13 io_in[20]
*14 io_in[21]
*15 io_in[22]
*16 io_in[23]
*17 io_in[24]
*18 io_in[25]
*19 io_in[26]
*20 io_in[27]
*21 io_in[28]
*22 io_in[29]
*23 io_in[2]
*24 io_in[30]
*25 io_in[31]
*26 io_in[32]
*27 io_in[33]
*28 io_in[34]
*29 io_in[35]
*30 io_in[36]
*31 io_in[37]
*32 io_in[3]
*33 io_in[4]
*34 io_in[5]
*35 io_in[6]
*36 io_in[7]
*37 io_in[8]
*38 io_in[9]
*39 io_oeb[0]
*40 io_oeb[10]
*41 io_oeb[11]
*42 io_oeb[12]
*43 io_oeb[13]
*44 io_oeb[14]
*45 io_oeb[15]
*46 io_oeb[16]
*47 io_oeb[17]
*48 io_oeb[18]
*49 io_oeb[19]
*50 io_oeb[1]
*51 io_oeb[20]
*52 io_oeb[21]
*53 io_oeb[22]
*54 io_oeb[23]
*55 io_oeb[24]
*56 io_oeb[25]
*57 io_oeb[26]
*58 io_oeb[27]
*59 io_oeb[28]
*60 io_oeb[29]
*61 io_oeb[2]
*62 io_oeb[30]
*63 io_oeb[31]
*64 io_oeb[32]
*65 io_oeb[33]
*66 io_oeb[34]
*67 io_oeb[35]
*68 io_oeb[36]
*69 io_oeb[37]
*70 io_oeb[3]
*71 io_oeb[4]
*72 io_oeb[5]
*73 io_oeb[6]
*74 io_oeb[7]
*75 io_oeb[8]
*76 io_oeb[9]
*77 io_out[0]
*78 io_out[10]
*79 io_out[11]
*80 io_out[12]
*81 io_out[13]
*82 io_out[14]
*83 io_out[15]
*84 io_out[16]
*85 io_out[17]
*86 io_out[18]
*87 io_out[19]
*88 io_out[1]
*89 io_out[20]
*90 io_out[21]
*91 io_out[22]
*92 io_out[23]
*93 io_out[24]
*94 io_out[25]
*95 io_out[26]
*96 io_out[27]
*97 io_out[28]
*98 io_out[29]
*99 io_out[2]
*100 io_out[30]
*101 io_out[31]
*102 io_out[32]
*103 io_out[33]
*104 io_out[34]
*105 io_out[35]
*106 io_out[36]
*107 io_out[37]
*108 io_out[3]
*109 io_out[4]
*110 io_out[5]
*111 io_out[6]
*112 io_out[7]
*113 io_out[8]
*114 io_out[9]
*115 la_data_in[0]
*116 la_data_in[10]
*117 la_data_in[11]
*118 la_data_in[12]
*119 la_data_in[13]
*120 la_data_in[14]
*121 la_data_in[15]
*122 la_data_in[16]
*123 la_data_in[17]
*124 la_data_in[18]
*125 la_data_in[19]
*126 la_data_in[1]
*127 la_data_in[20]
*128 la_data_in[21]
*129 la_data_in[22]
*130 la_data_in[23]
*131 la_data_in[24]
*132 la_data_in[25]
*133 la_data_in[26]
*134 la_data_in[27]
*135 la_data_in[28]
*136 la_data_in[29]
*137 la_data_in[2]
*138 la_data_in[30]
*139 la_data_in[31]
*140 la_data_in[32]
*141 la_data_in[33]
*142 la_data_in[34]
*143 la_data_in[35]
*144 la_data_in[36]
*145 la_data_in[37]
*146 la_data_in[38]
*147 la_data_in[39]
*148 la_data_in[3]
*149 la_data_in[40]
*150 la_data_in[41]
*151 la_data_in[42]
*152 la_data_in[43]
*153 la_data_in[44]
*154 la_data_in[45]
*155 la_data_in[46]
*156 la_data_in[47]
*157 la_data_in[48]
*158 la_data_in[49]
*159 la_data_in[4]
*160 la_data_in[50]
*161 la_data_in[51]
*162 la_data_in[52]
*163 la_data_in[53]
*164 la_data_in[54]
*165 la_data_in[55]
*166 la_data_in[56]
*167 la_data_in[57]
*168 la_data_in[58]
*169 la_data_in[59]
*170 la_data_in[5]
*171 la_data_in[60]
*172 la_data_in[61]
*173 la_data_in[62]
*174 la_data_in[63]
*175 la_data_in[6]
*176 la_data_in[7]
*177 la_data_in[8]
*178 la_data_in[9]
*179 la_data_out[0]
*180 la_data_out[10]
*181 la_data_out[11]
*182 la_data_out[12]
*183 la_data_out[13]
*184 la_data_out[14]
*185 la_data_out[15]
*186 la_data_out[16]
*187 la_data_out[17]
*188 la_data_out[18]
*189 la_data_out[19]
*190 la_data_out[1]
*191 la_data_out[20]
*192 la_data_out[21]
*193 la_data_out[22]
*194 la_data_out[23]
*195 la_data_out[24]
*196 la_data_out[25]
*197 la_data_out[26]
*198 la_data_out[27]
*199 la_data_out[28]
*200 la_data_out[29]
*201 la_data_out[2]
*202 la_data_out[30]
*203 la_data_out[31]
*204 la_data_out[32]
*205 la_data_out[33]
*206 la_data_out[34]
*207 la_data_out[35]
*208 la_data_out[36]
*209 la_data_out[37]
*210 la_data_out[38]
*211 la_data_out[39]
*212 la_data_out[3]
*213 la_data_out[40]
*214 la_data_out[41]
*215 la_data_out[42]
*216 la_data_out[43]
*217 la_data_out[44]
*218 la_data_out[45]
*219 la_data_out[46]
*220 la_data_out[47]
*221 la_data_out[48]
*222 la_data_out[49]
*223 la_data_out[4]
*224 la_data_out[50]
*225 la_data_out[51]
*226 la_data_out[52]
*227 la_data_out[53]
*228 la_data_out[54]
*229 la_data_out[55]
*230 la_data_out[56]
*231 la_data_out[57]
*232 la_data_out[58]
*233 la_data_out[59]
*234 la_data_out[5]
*235 la_data_out[60]
*236 la_data_out[61]
*237 la_data_out[62]
*238 la_data_out[63]
*239 la_data_out[6]
*240 la_data_out[7]
*241 la_data_out[8]
*242 la_data_out[9]
*243 la_oenb[0]
*244 la_oenb[10]
*245 la_oenb[11]
*246 la_oenb[12]
*247 la_oenb[13]
*248 la_oenb[14]
*249 la_oenb[15]
*250 la_oenb[16]
*251 la_oenb[17]
*252 la_oenb[18]
*253 la_oenb[19]
*254 la_oenb[1]
*255 la_oenb[20]
*256 la_oenb[21]
*257 la_oenb[22]
*258 la_oenb[23]
*259 la_oenb[24]
*260 la_oenb[25]
*261 la_oenb[26]
*262 la_oenb[27]
*263 la_oenb[28]
*264 la_oenb[29]
*265 la_oenb[2]
*266 la_oenb[30]
*267 la_oenb[31]
*268 la_oenb[32]
*269 la_oenb[33]
*270 la_oenb[34]
*271 la_oenb[35]
*272 la_oenb[36]
*273 la_oenb[37]
*274 la_oenb[38]
*275 la_oenb[39]
*276 la_oenb[3]
*277 la_oenb[40]
*278 la_oenb[41]
*279 la_oenb[42]
*280 la_oenb[43]
*281 la_oenb[44]
*282 la_oenb[45]
*283 la_oenb[46]
*284 la_oenb[47]
*285 la_oenb[48]
*286 la_oenb[49]
*287 la_oenb[4]
*288 la_oenb[50]
*289 la_oenb[51]
*290 la_oenb[52]
*291 la_oenb[53]
*292 la_oenb[54]
*293 la_oenb[55]
*294 la_oenb[56]
*295 la_oenb[57]
*296 la_oenb[58]
*297 la_oenb[59]
*298 la_oenb[5]
*299 la_oenb[60]
*300 la_oenb[61]
*301 la_oenb[62]
*302 la_oenb[63]
*303 la_oenb[6]
*304 la_oenb[7]
*305 la_oenb[8]
*306 la_oenb[9]
*307 user_clock2
*308 user_irq[0]
*309 user_irq[1]
*310 user_irq[2]
*313 wb_clk_i
*314 wb_rst_i
*315 wbs_ack_o
*316 wbs_adr_i[0]
*317 wbs_adr_i[10]
*318 wbs_adr_i[11]
*319 wbs_adr_i[12]
*320 wbs_adr_i[13]
*321 wbs_adr_i[14]
*322 wbs_adr_i[15]
*323 wbs_adr_i[16]
*324 wbs_adr_i[17]
*325 wbs_adr_i[18]
*326 wbs_adr_i[19]
*327 wbs_adr_i[1]
*328 wbs_adr_i[20]
*329 wbs_adr_i[21]
*330 wbs_adr_i[22]
*331 wbs_adr_i[23]
*332 wbs_adr_i[24]
*333 wbs_adr_i[25]
*334 wbs_adr_i[26]
*335 wbs_adr_i[27]
*336 wbs_adr_i[28]
*337 wbs_adr_i[29]
*338 wbs_adr_i[2]
*339 wbs_adr_i[30]
*340 wbs_adr_i[31]
*341 wbs_adr_i[3]
*342 wbs_adr_i[4]
*343 wbs_adr_i[5]
*344 wbs_adr_i[6]
*345 wbs_adr_i[7]
*346 wbs_adr_i[8]
*347 wbs_adr_i[9]
*348 wbs_cyc_i
*349 wbs_dat_i[0]
*350 wbs_dat_i[10]
*351 wbs_dat_i[11]
*352 wbs_dat_i[12]
*353 wbs_dat_i[13]
*354 wbs_dat_i[14]
*355 wbs_dat_i[15]
*356 wbs_dat_i[16]
*357 wbs_dat_i[17]
*358 wbs_dat_i[18]
*359 wbs_dat_i[19]
*360 wbs_dat_i[1]
*361 wbs_dat_i[20]
*362 wbs_dat_i[21]
*363 wbs_dat_i[22]
*364 wbs_dat_i[23]
*365 wbs_dat_i[24]
*366 wbs_dat_i[25]
*367 wbs_dat_i[26]
*368 wbs_dat_i[27]
*369 wbs_dat_i[28]
*370 wbs_dat_i[29]
*371 wbs_dat_i[2]
*372 wbs_dat_i[30]
*373 wbs_dat_i[31]
*374 wbs_dat_i[3]
*375 wbs_dat_i[4]
*376 wbs_dat_i[5]
*377 wbs_dat_i[6]
*378 wbs_dat_i[7]
*379 wbs_dat_i[8]
*380 wbs_dat_i[9]
*381 wbs_dat_o[0]
*382 wbs_dat_o[10]
*383 wbs_dat_o[11]
*384 wbs_dat_o[12]
*385 wbs_dat_o[13]
*386 wbs_dat_o[14]
*387 wbs_dat_o[15]
*388 wbs_dat_o[16]
*389 wbs_dat_o[17]
*390 wbs_dat_o[18]
*391 wbs_dat_o[19]
*392 wbs_dat_o[1]
*393 wbs_dat_o[20]
*394 wbs_dat_o[21]
*395 wbs_dat_o[22]
*396 wbs_dat_o[23]
*397 wbs_dat_o[24]
*398 wbs_dat_o[25]
*399 wbs_dat_o[26]
*400 wbs_dat_o[27]
*401 wbs_dat_o[28]
*402 wbs_dat_o[29]
*403 wbs_dat_o[2]
*404 wbs_dat_o[30]
*405 wbs_dat_o[31]
*406 wbs_dat_o[3]
*407 wbs_dat_o[4]
*408 wbs_dat_o[5]
*409 wbs_dat_o[6]
*410 wbs_dat_o[7]
*411 wbs_dat_o[8]
*412 wbs_dat_o[9]
*413 wbs_sel_i[0]
*414 wbs_sel_i[1]
*415 wbs_sel_i[2]
*416 wbs_sel_i[3]
*417 wbs_stb_i
*418 wbs_we_i
*419 ay8913_do\[0\]
*420 ay8913_do\[10\]
*421 ay8913_do\[11\]
*422 ay8913_do\[12\]
*423 ay8913_do\[13\]
*424 ay8913_do\[14\]
*425 ay8913_do\[15\]
*426 ay8913_do\[16\]
*427 ay8913_do\[17\]
*428 ay8913_do\[18\]
*429 ay8913_do\[19\]
*430 ay8913_do\[1\]
*431 ay8913_do\[20\]
*432 ay8913_do\[21\]
*433 ay8913_do\[22\]
*434 ay8913_do\[23\]
*435 ay8913_do\[24\]
*436 ay8913_do\[25\]
*437 ay8913_do\[26\]
*438 ay8913_do\[27\]
*439 ay8913_do\[2\]
*440 ay8913_do\[3\]
*441 ay8913_do\[4\]
*442 ay8913_do\[5\]
*443 ay8913_do\[6\]
*444 ay8913_do\[7\]
*445 ay8913_do\[8\]
*446 ay8913_do\[9\]
*447 blinker_do\[0\]
*448 blinker_do\[1\]
*449 blinker_do\[2\]
*450 custom_settings\[0\]
*451 custom_settings\[10\]
*452 custom_settings\[11\]
*453 custom_settings\[12\]
*454 custom_settings\[13\]
*455 custom_settings\[14\]
*456 custom_settings\[15\]
*457 custom_settings\[16\]
*458 custom_settings\[17\]
*459 custom_settings\[18\]
*460 custom_settings\[19\]
*461 custom_settings\[1\]
*462 custom_settings\[20\]
*463 custom_settings\[21\]
*464 custom_settings\[22\]
*465 custom_settings\[23\]
*466 custom_settings\[24\]
*467 custom_settings\[25\]
*468 custom_settings\[26\]
*469 custom_settings\[27\]
*470 custom_settings\[28\]
*471 custom_settings\[29\]
*472 custom_settings\[2\]
*473 custom_settings\[30\]
*474 custom_settings\[31\]
*475 custom_settings\[3\]
*476 custom_settings\[4\]
*477 custom_settings\[5\]
*478 custom_settings\[6\]
*479 custom_settings\[7\]
*480 custom_settings\[8\]
*481 custom_settings\[9\]
*482 hellorld_do
*483 mc14500_do\[0\]
*484 mc14500_do\[10\]
*485 mc14500_do\[11\]
*486 mc14500_do\[12\]
*487 mc14500_do\[13\]
*488 mc14500_do\[14\]
*489 mc14500_do\[15\]
*490 mc14500_do\[16\]
*491 mc14500_do\[17\]
*492 mc14500_do\[18\]
*493 mc14500_do\[19\]
*494 mc14500_do\[1\]
*495 mc14500_do\[20\]
*496 mc14500_do\[21\]
*497 mc14500_do\[22\]
*498 mc14500_do\[23\]
*499 mc14500_do\[24\]
*500 mc14500_do\[25\]
*501 mc14500_do\[26\]
*502 mc14500_do\[27\]
*503 mc14500_do\[28\]
*504 mc14500_do\[29\]
*505 mc14500_do\[2\]
*506 mc14500_do\[30\]
*507 mc14500_do\[3\]
*508 mc14500_do\[4\]
*509 mc14500_do\[5\]
*510 mc14500_do\[6\]
*511 mc14500_do\[7\]
*512 mc14500_do\[8\]
*513 mc14500_do\[9\]
*514 mc14500_sram_addr\[0\]
*515 mc14500_sram_addr\[1\]
*516 mc14500_sram_addr\[2\]
*517 mc14500_sram_addr\[3\]
*518 mc14500_sram_addr\[4\]
*519 mc14500_sram_addr\[5\]
*520 mc14500_sram_gwe
*521 mc14500_sram_in\[0\]
*522 mc14500_sram_in\[1\]
*523 mc14500_sram_in\[2\]
*524 mc14500_sram_in\[3\]
*525 mc14500_sram_in\[4\]
*526 mc14500_sram_in\[5\]
*527 mc14500_sram_in\[6\]
*528 mc14500_sram_in\[7\]
*529 pdp11_do\[0\]
*530 pdp11_do\[10\]
*531 pdp11_do\[11\]
*532 pdp11_do\[12\]
*533 pdp11_do\[13\]
*534 pdp11_do\[14\]
*535 pdp11_do\[15\]
*536 pdp11_do\[16\]
*537 pdp11_do\[17\]
*538 pdp11_do\[18\]
*539 pdp11_do\[19\]
*540 pdp11_do\[1\]
*541 pdp11_do\[20\]
*542 pdp11_do\[21\]
*543 pdp11_do\[22\]
*544 pdp11_do\[23\]
*545 pdp11_do\[24\]
*546 pdp11_do\[25\]
*547 pdp11_do\[26\]
*548 pdp11_do\[27\]
*549 pdp11_do\[28\]
*550 pdp11_do\[29\]
*551 pdp11_do\[2\]
*552 pdp11_do\[30\]
*553 pdp11_do\[31\]
*554 pdp11_do\[32\]
*555 pdp11_do\[3\]
*556 pdp11_do\[4\]
*557 pdp11_do\[5\]
*558 pdp11_do\[6\]
*559 pdp11_do\[7\]
*560 pdp11_do\[8\]
*561 pdp11_do\[9\]
*562 pdp11_oeb\[0\]
*563 pdp11_oeb\[10\]
*564 pdp11_oeb\[11\]
*565 pdp11_oeb\[12\]
*566 pdp11_oeb\[13\]
*567 pdp11_oeb\[14\]
*568 pdp11_oeb\[15\]
*569 pdp11_oeb\[16\]
*570 pdp11_oeb\[17\]
*571 pdp11_oeb\[18\]
*572 pdp11_oeb\[19\]
*573 pdp11_oeb\[1\]
*574 pdp11_oeb\[20\]
*575 pdp11_oeb\[21\]
*576 pdp11_oeb\[22\]
*577 pdp11_oeb\[23\]
*578 pdp11_oeb\[24\]
*579 pdp11_oeb\[25\]
*580 pdp11_oeb\[26\]
*581 pdp11_oeb\[27\]
*582 pdp11_oeb\[28\]
*583 pdp11_oeb\[29\]
*584 pdp11_oeb\[2\]
*585 pdp11_oeb\[30\]
*586 pdp11_oeb\[31\]
*587 pdp11_oeb\[32\]
*588 pdp11_oeb\[3\]
*589 pdp11_oeb\[4\]
*590 pdp11_oeb\[5\]
*591 pdp11_oeb\[6\]
*592 pdp11_oeb\[7\]
*593 pdp11_oeb\[8\]
*594 pdp11_oeb\[9\]
*595 qcpu_do\[0\]
*596 qcpu_do\[10\]
*597 qcpu_do\[11\]
*598 qcpu_do\[12\]
*599 qcpu_do\[13\]
*600 qcpu_do\[14\]
*601 qcpu_do\[15\]
*602 qcpu_do\[16\]
*603 qcpu_do\[17\]
*604 qcpu_do\[18\]
*605 qcpu_do\[19\]
*606 qcpu_do\[1\]
*607 qcpu_do\[20\]
*608 qcpu_do\[21\]
*609 qcpu_do\[22\]
*610 qcpu_do\[23\]
*611 qcpu_do\[24\]
*612 qcpu_do\[25\]
*613 qcpu_do\[26\]
*614 qcpu_do\[27\]
*615 qcpu_do\[28\]
*616 qcpu_do\[29\]
*617 qcpu_do\[2\]
*618 qcpu_do\[30\]
*619 qcpu_do\[31\]
*620 qcpu_do\[32\]
*621 qcpu_do\[3\]
*622 qcpu_do\[4\]
*623 qcpu_do\[5\]
*624 qcpu_do\[6\]
*625 qcpu_do\[7\]
*626 qcpu_do\[8\]
*627 qcpu_do\[9\]
*628 qcpu_oeb\[0\]
*629 qcpu_oeb\[10\]
*630 qcpu_oeb\[11\]
*631 qcpu_oeb\[12\]
*632 qcpu_oeb\[13\]
*633 qcpu_oeb\[14\]
*634 qcpu_oeb\[15\]
*635 qcpu_oeb\[16\]
*636 qcpu_oeb\[17\]
*637 qcpu_oeb\[18\]
*638 qcpu_oeb\[19\]
*639 qcpu_oeb\[1\]
*640 qcpu_oeb\[20\]
*641 qcpu_oeb\[21\]
*642 qcpu_oeb\[22\]
*643 qcpu_oeb\[23\]
*644 qcpu_oeb\[24\]
*645 qcpu_oeb\[25\]
*646 qcpu_oeb\[26\]
*647 qcpu_oeb\[27\]
*648 qcpu_oeb\[28\]
*649 qcpu_oeb\[29\]
*650 qcpu_oeb\[2\]
*651 qcpu_oeb\[30\]
*652 qcpu_oeb\[31\]
*653 qcpu_oeb\[32\]
*654 qcpu_oeb\[3\]
*655 qcpu_oeb\[4\]
*656 qcpu_oeb\[5\]
*657 qcpu_oeb\[6\]
*658 qcpu_oeb\[7\]
*659 qcpu_oeb\[8\]
*660 qcpu_oeb\[9\]
*661 qcpu_sram_addr\[0\]
*662 qcpu_sram_addr\[1\]
*663 qcpu_sram_addr\[2\]
*664 qcpu_sram_addr\[3\]
*665 qcpu_sram_addr\[4\]
*666 qcpu_sram_addr\[5\]
*667 qcpu_sram_gwe
*668 qcpu_sram_in\[0\]
*669 qcpu_sram_in\[1\]
*670 qcpu_sram_in\[2\]
*671 qcpu_sram_in\[3\]
*672 qcpu_sram_in\[4\]
*673 qcpu_sram_in\[5\]
*674 qcpu_sram_in\[6\]
*675 qcpu_sram_in\[7\]
*676 qcpu_sram_out\[0\]
*677 qcpu_sram_out\[1\]
*678 qcpu_sram_out\[2\]
*679 qcpu_sram_out\[3\]
*680 qcpu_sram_out\[4\]
*681 qcpu_sram_out\[5\]
*682 qcpu_sram_out\[6\]
*683 qcpu_sram_out\[7\]
*684 rst_ay8913
*685 rst_blinker
*686 rst_hellorld
*687 rst_mc14500
*688 rst_pdp11
*689 rst_qcpu
*690 rst_sid
*691 rst_sn76489
*692 rst_tbb1143
*693 sid_do\[0\]
*694 sid_do\[10\]
*695 sid_do\[11\]
*696 sid_do\[12\]
*697 sid_do\[13\]
*698 sid_do\[14\]
*699 sid_do\[15\]
*700 sid_do\[16\]
*701 sid_do\[17\]
*702 sid_do\[18\]
*703 sid_do\[19\]
*704 sid_do\[1\]
*705 sid_do\[20\]
*706 sid_do\[2\]
*707 sid_do\[3\]
*708 sid_do\[4\]
*709 sid_do\[5\]
*710 sid_do\[6\]
*711 sid_do\[7\]
*712 sid_do\[8\]
*713 sid_do\[9\]
*714 sid_oeb
*715 sn76489_do\[0\]
*716 sn76489_do\[10\]
*717 sn76489_do\[11\]
*718 sn76489_do\[12\]
*719 sn76489_do\[13\]
*720 sn76489_do\[14\]
*721 sn76489_do\[15\]
*722 sn76489_do\[16\]
*723 sn76489_do\[17\]
*724 sn76489_do\[18\]
*725 sn76489_do\[19\]
*726 sn76489_do\[1\]
*727 sn76489_do\[20\]
*728 sn76489_do\[21\]
*729 sn76489_do\[22\]
*730 sn76489_do\[23\]
*731 sn76489_do\[24\]
*732 sn76489_do\[25\]
*733 sn76489_do\[26\]
*734 sn76489_do\[27\]
*735 sn76489_do\[2\]
*736 sn76489_do\[3\]
*737 sn76489_do\[4\]
*738 sn76489_do\[5\]
*739 sn76489_do\[6\]
*740 sn76489_do\[7\]
*741 sn76489_do\[8\]
*742 sn76489_do\[9\]
*743 tbb1143_do\[0\]
*744 tbb1143_do\[1\]
*745 tbb1143_do\[2\]
*746 tbb1143_do\[3\]
*747 tbb1143_do\[4\]
*748 avali_logo
*749 ay8913
*750 blinker
*751 hellorld
*752 mc14500
*753 multiplexer
*754 sid
*755 tbb1143
*756 wrapped_pdp11
*757 wrapped_qcpu
*758 wrapped_sn76489

*PORTS
io_in[0] I
io_in[10] I
io_in[11] I
io_in[12] I
io_in[13] I
io_in[14] I
io_in[15] I
io_in[16] I
io_in[17] I
io_in[18] I
io_in[19] I
io_in[1] I
io_in[20] I
io_in[21] I
io_in[22] I
io_in[23] I
io_in[24] I
io_in[25] I
io_in[26] I
io_in[27] I
io_in[28] I
io_in[29] I
io_in[2] I
io_in[30] I
io_in[31] I
io_in[32] I
io_in[33] I
io_in[34] I
io_in[35] I
io_in[36] I
io_in[37] I
io_in[3] I
io_in[4] I
io_in[5] I
io_in[6] I
io_in[7] I
io_in[8] I
io_in[9] I
io_oeb[0] O
io_oeb[10] O
io_oeb[11] O
io_oeb[12] O
io_oeb[13] O
io_oeb[14] O
io_oeb[15] O
io_oeb[16] O
io_oeb[17] O
io_oeb[18] O
io_oeb[19] O
io_oeb[1] O
io_oeb[20] O
io_oeb[21] O
io_oeb[22] O
io_oeb[23] O
io_oeb[24] O
io_oeb[25] O
io_oeb[26] O
io_oeb[27] O
io_oeb[28] O
io_oeb[29] O
io_oeb[2] O
io_oeb[30] O
io_oeb[31] O
io_oeb[32] O
io_oeb[33] O
io_oeb[34] O
io_oeb[35] O
io_oeb[36] O
io_oeb[37] O
io_oeb[3] O
io_oeb[4] O
io_oeb[5] O
io_oeb[6] O
io_oeb[7] O
io_oeb[8] O
io_oeb[9] O
io_out[0] O
io_out[10] O
io_out[11] O
io_out[12] O
io_out[13] O
io_out[14] O
io_out[15] O
io_out[16] O
io_out[17] O
io_out[18] O
io_out[19] O
io_out[1] O
io_out[20] O
io_out[21] O
io_out[22] O
io_out[23] O
io_out[24] O
io_out[25] O
io_out[26] O
io_out[27] O
io_out[28] O
io_out[29] O
io_out[2] O
io_out[30] O
io_out[31] O
io_out[32] O
io_out[33] O
io_out[34] O
io_out[35] O
io_out[36] O
io_out[37] O
io_out[3] O
io_out[4] O
io_out[5] O
io_out[6] O
io_out[7] O
io_out[8] O
io_out[9] O
la_data_in[0] I
la_data_in[10] I
la_data_in[11] I
la_data_in[12] I
la_data_in[13] I
la_data_in[14] I
la_data_in[15] I
la_data_in[16] I
la_data_in[17] I
la_data_in[18] I
la_data_in[19] I
la_data_in[1] I
la_data_in[20] I
la_data_in[21] I
la_data_in[22] I
la_data_in[23] I
la_data_in[24] I
la_data_in[25] I
la_data_in[26] I
la_data_in[27] I
la_data_in[28] I
la_data_in[29] I
la_data_in[2] I
la_data_in[30] I
la_data_in[31] I
la_data_in[32] I
la_data_in[33] I
la_data_in[34] I
la_data_in[35] I
la_data_in[36] I
la_data_in[37] I
la_data_in[38] I
la_data_in[39] I
la_data_in[3] I
la_data_in[40] I
la_data_in[41] I
la_data_in[42] I
la_data_in[43] I
la_data_in[44] I
la_data_in[45] I
la_data_in[46] I
la_data_in[47] I
la_data_in[48] I
la_data_in[49] I
la_data_in[4] I
la_data_in[50] I
la_data_in[51] I
la_data_in[52] I
la_data_in[53] I
la_data_in[54] I
la_data_in[55] I
la_data_in[56] I
la_data_in[57] I
la_data_in[58] I
la_data_in[59] I
la_data_in[5] I
la_data_in[60] I
la_data_in[61] I
la_data_in[62] I
la_data_in[63] I
la_data_in[6] I
la_data_in[7] I
la_data_in[8] I
la_data_in[9] I
la_data_out[0] O
la_data_out[10] O
la_data_out[11] O
la_data_out[12] O
la_data_out[13] O
la_data_out[14] O
la_data_out[15] O
la_data_out[16] O
la_data_out[17] O
la_data_out[18] O
la_data_out[19] O
la_data_out[1] O
la_data_out[20] O
la_data_out[21] O
la_data_out[22] O
la_data_out[23] O
la_data_out[24] O
la_data_out[25] O
la_data_out[26] O
la_data_out[27] O
la_data_out[28] O
la_data_out[29] O
la_data_out[2] O
la_data_out[30] O
la_data_out[31] O
la_data_out[32] O
la_data_out[33] O
la_data_out[34] O
la_data_out[35] O
la_data_out[36] O
la_data_out[37] O
la_data_out[38] O
la_data_out[39] O
la_data_out[3] O
la_data_out[40] O
la_data_out[41] O
la_data_out[42] O
la_data_out[43] O
la_data_out[44] O
la_data_out[45] O
la_data_out[46] O
la_data_out[47] O
la_data_out[48] O
la_data_out[49] O
la_data_out[4] O
la_data_out[50] O
la_data_out[51] O
la_data_out[52] O
la_data_out[53] O
la_data_out[54] O
la_data_out[55] O
la_data_out[56] O
la_data_out[57] O
la_data_out[58] O
la_data_out[59] O
la_data_out[5] O
la_data_out[60] O
la_data_out[61] O
la_data_out[62] O
la_data_out[63] O
la_data_out[6] O
la_data_out[7] O
la_data_out[8] O
la_data_out[9] O
la_oenb[0] I
la_oenb[10] I
la_oenb[11] I
la_oenb[12] I
la_oenb[13] I
la_oenb[14] I
la_oenb[15] I
la_oenb[16] I
la_oenb[17] I
la_oenb[18] I
la_oenb[19] I
la_oenb[1] I
la_oenb[20] I
la_oenb[21] I
la_oenb[22] I
la_oenb[23] I
la_oenb[24] I
la_oenb[25] I
la_oenb[26] I
la_oenb[27] I
la_oenb[28] I
la_oenb[29] I
la_oenb[2] I
la_oenb[30] I
la_oenb[31] I
la_oenb[32] I
la_oenb[33] I
la_oenb[34] I
la_oenb[35] I
la_oenb[36] I
la_oenb[37] I
la_oenb[38] I
la_oenb[39] I
la_oenb[3] I
la_oenb[40] I
la_oenb[41] I
la_oenb[42] I
la_oenb[43] I
la_oenb[44] I
la_oenb[45] I
la_oenb[46] I
la_oenb[47] I
la_oenb[48] I
la_oenb[49] I
la_oenb[4] I
la_oenb[50] I
la_oenb[51] I
la_oenb[52] I
la_oenb[53] I
la_oenb[54] I
la_oenb[55] I
la_oenb[56] I
la_oenb[57] I
la_oenb[58] I
la_oenb[59] I
la_oenb[5] I
la_oenb[60] I
la_oenb[61] I
la_oenb[62] I
la_oenb[63] I
la_oenb[6] I
la_oenb[7] I
la_oenb[8] I
la_oenb[9] I
user_clock2 I
user_irq[0] O
user_irq[1] O
user_irq[2] O
wb_clk_i I
wb_rst_i I
wbs_ack_o O
wbs_adr_i[0] I
wbs_adr_i[10] I
wbs_adr_i[11] I
wbs_adr_i[12] I
wbs_adr_i[13] I
wbs_adr_i[14] I
wbs_adr_i[15] I
wbs_adr_i[16] I
wbs_adr_i[17] I
wbs_adr_i[18] I
wbs_adr_i[19] I
wbs_adr_i[1] I
wbs_adr_i[20] I
wbs_adr_i[21] I
wbs_adr_i[22] I
wbs_adr_i[23] I
wbs_adr_i[24] I
wbs_adr_i[25] I
wbs_adr_i[26] I
wbs_adr_i[27] I
wbs_adr_i[28] I
wbs_adr_i[29] I
wbs_adr_i[2] I
wbs_adr_i[30] I
wbs_adr_i[31] I
wbs_adr_i[3] I
wbs_adr_i[4] I
wbs_adr_i[5] I
wbs_adr_i[6] I
wbs_adr_i[7] I
wbs_adr_i[8] I
wbs_adr_i[9] I
wbs_cyc_i I
wbs_dat_i[0] I
wbs_dat_i[10] I
wbs_dat_i[11] I
wbs_dat_i[12] I
wbs_dat_i[13] I
wbs_dat_i[14] I
wbs_dat_i[15] I
wbs_dat_i[16] I
wbs_dat_i[17] I
wbs_dat_i[18] I
wbs_dat_i[19] I
wbs_dat_i[1] I
wbs_dat_i[20] I
wbs_dat_i[21] I
wbs_dat_i[22] I
wbs_dat_i[23] I
wbs_dat_i[24] I
wbs_dat_i[25] I
wbs_dat_i[26] I
wbs_dat_i[27] I
wbs_dat_i[28] I
wbs_dat_i[29] I
wbs_dat_i[2] I
wbs_dat_i[30] I
wbs_dat_i[31] I
wbs_dat_i[3] I
wbs_dat_i[4] I
wbs_dat_i[5] I
wbs_dat_i[6] I
wbs_dat_i[7] I
wbs_dat_i[8] I
wbs_dat_i[9] I
wbs_dat_o[0] O
wbs_dat_o[10] O
wbs_dat_o[11] O
wbs_dat_o[12] O
wbs_dat_o[13] O
wbs_dat_o[14] O
wbs_dat_o[15] O
wbs_dat_o[16] O
wbs_dat_o[17] O
wbs_dat_o[18] O
wbs_dat_o[19] O
wbs_dat_o[1] O
wbs_dat_o[20] O
wbs_dat_o[21] O
wbs_dat_o[22] O
wbs_dat_o[23] O
wbs_dat_o[24] O
wbs_dat_o[25] O
wbs_dat_o[26] O
wbs_dat_o[27] O
wbs_dat_o[28] O
wbs_dat_o[29] O
wbs_dat_o[2] O
wbs_dat_o[30] O
wbs_dat_o[31] O
wbs_dat_o[3] O
wbs_dat_o[4] O
wbs_dat_o[5] O
wbs_dat_o[6] O
wbs_dat_o[7] O
wbs_dat_o[8] O
wbs_dat_o[9] O
wbs_sel_i[0] I
wbs_sel_i[1] I
wbs_sel_i[2] I
wbs_sel_i[3] I
wbs_stb_i I
wbs_we_i I

*D_NET *1 0.817884
*CONN
*P io_in[0] I
*I *753:io_in_0 I *D multiplexer
*CAP
1 io_in[0] 0.00647092
2 *753:io_in_0 9.16712e-05
3 *1:17 0.00396587
4 *1:15 0.0038742
5 *1:13 0.00774277
6 *1:11 0.00774277
7 *1:9 0.0500551
8 *1:7 0.0500551
9 *1:5 0.00647092
10 *1:9 *757:sram_out[2] 0.00183826
11 *1:9 *646:9 0.0112232
12 *1:9 *665:9 0
13 *1:9 *668:9 0
14 *1:9 *671:9 0.000519343
15 *1:13 *50:13 0.240177
16 *1:13 *605:9 0.00528123
17 *1:13 *687:13 0.206387
18 *1:17 *16:21 0.109724
19 *1:17 *25:25 0.0978424
20 *1:17 *72:15 0.00121809
21 *1:17 *484:13 0.0072051
22 *1:17 *705:17 0
*RES
1 io_in[0] *1:5 56.42 
2 *1:5 *1:7 4.5 
3 *1:7 *1:9 426.296 
4 *1:9 *1:11 4.5 
5 *1:11 *1:13 611.416 
6 *1:13 *1:15 4.5 
7 *1:15 *1:17 276.328 
8 *1:17 *753:io_in_0 9.676 
*END

*D_NET *2 0.924732
*CONN
*P io_in[10] I
*I *754:io_in[5] I *D wrapped_sid
*I *758:io_in_1[5] I *D wrapped_sn76489
*I *757:io_in[5] I *D wrapped_qcpu
*I *752:io_in[5] I *D wrapped_mc14500
*I *756:io_in[5] I *D wrapped_pdp11
*I *749:io_in_1[5] I *D wrapped_ay8913
*I *755:io_in[5] I *D tholin_avalonsemi_tbb1143
*CAP
1 io_in[10] 0.0140428
2 *754:io_in[5] 0.00129112
3 *758:io_in_1[5] 0.000176926
4 *757:io_in[5] 0.000531595
5 *752:io_in[5] 0.000392196
6 *756:io_in[5] 0.0020072
7 *749:io_in_1[5] 0.0024417
8 *755:io_in[5] 0.000319805
9 *2:117 0.0187073
10 *2:115 0.0174162
11 *2:113 0.00451043
12 *2:111 0.00451043
13 *2:101 0.00696664
14 *2:99 0.00678972
15 *2:97 0.014547
16 *2:95 0.0149855
17 *2:83 0.0130114
18 *2:81 0.0120413
19 *2:79 0.00530058
20 *2:77 0.0077325
21 *2:63 0.00314854
22 *2:59 0.0219863
23 *2:57 0.0216618
24 *2:35 0.0203531
25 *2:33 0.0179114
26 *2:31 0.00786709
27 *2:29 0.00786709
28 *2:19 0.00616135
29 *2:17 0.00584155
30 *2:15 0.0126657
31 *2:13 0.0146729
32 *2:11 0.0343842
33 *2:9 0.0364601
34 *2:5 0.0161188
35 *749:io_in_1[5] *38:139 0.00909683
36 *749:io_in_1[5] *427:19 0.000684434
37 *754:io_in[5] *754:io_in[6] 0.0105303
38 *754:io_in[5] *4:111 0.0104519
39 *754:io_in[5] *388:17 0.000638257
40 *757:io_in[5] *38:42 0
41 *2:5 *41:13 0.00394592
42 *2:5 *43:13 0
43 *2:5 *79:9 0.00666355
44 *2:5 *80:9 0
45 *2:5 *552:9 0.000765791
46 *2:5 *570:13 0
47 *2:9 *41:13 0.000996802
48 *2:9 *79:9 0.00262907
49 *2:9 *552:9 0.00094827
50 *2:11 io_out[28] 0.00595514
51 *2:11 *79:9 0
52 *2:11 *459:10 0.0179243
53 *2:11 *533:9 0.0752887
54 *2:11 *541:9 0.0119565
55 *2:11 *552:9 0.00467605
56 *2:15 *499:13 0.00161841
57 *2:15 *506:13 0.000317887
58 *2:31 *38:129 0.0410814
59 *2:31 *49:11 0
60 *2:31 *49:13 0
61 *2:35 *749:io_in_1[7] 0
62 *2:35 *38:133 0
63 *2:35 *48:5 0
64 *2:35 *452:39 0
65 *2:35 *475:53 0.0165737
66 *2:59 *3:75 0.127669
67 *2:59 *3:83 0.000667202
68 *2:59 *36:21 3.04205e-05
69 *2:59 *36:23 0.00141696
70 *2:59 *687:17 0.00207488
71 *2:77 *3:93 0.0150533
72 *2:79 *620:9 0.0142609
73 *2:83 *38:42 0
74 *2:83 *522:13 0.00226309
75 *2:95 *3:113 0.0160609
76 *2:95 *4:87 0.0122039
77 *2:95 *35:51 5.29686e-05
78 *2:95 *474:13 0.00106443
79 *2:97 *467:9 0.00291866
80 *2:113 *3:133 0.0257197
81 *2:117 *36:65 0.10571
82 *2:117 *38:78 0
83 *2:117 *367:9 0
*RES
1 io_in[10] *2:5 142.116 
2 *2:5 *2:9 32.136 
3 *2:9 *2:11 519.584 
4 *2:11 *2:13 4.5 
5 *2:13 *2:15 104.728 
6 *2:15 *2:17 4.5 
7 *2:17 *2:19 48.36 
8 *2:19 *755:io_in[5] 2.652 
9 *2:19 *2:29 4.5 
10 *2:29 *2:31 114.504 
11 *2:31 *2:33 4.5 
12 *2:33 *2:35 172.952 
13 *2:35 *749:io_in_1[5] 39.108 
14 *2:13 *756:io_in[5] 13.884 
15 *2:5 *2:57 4.5 
16 *2:57 *2:59 337.896 
17 *2:59 *2:63 7.1 
18 *2:63 *752:io_in[5] 2.86 
19 *2:63 *2:77 47.792 
20 *2:77 *2:79 83.304 
21 *2:79 *2:81 4.5 
22 *2:81 *2:83 91.416 
23 *2:83 *757:io_in[5] 3.38 
24 *2:83 *2:95 49.872 
25 *2:95 *2:97 118.04 
26 *2:97 *2:99 4.5 
27 *2:99 *2:101 57.304 
28 *2:101 *758:io_in_1[5] 0.988 
29 *2:101 *2:111 4.5 
30 *2:111 *2:113 69.784 
31 *2:113 *2:115 4.5 
32 *2:115 *2:117 273.208 
33 *2:117 *754:io_in[5] 46.18 
*END

*D_NET *3 1.20089
*CONN
*P io_in[11] I
*I *754:io_in[6] I *D wrapped_sid
*I *758:io_in_1[6] I *D wrapped_sn76489
*I *757:io_in[6] I *D wrapped_qcpu
*I *752:io_in[6] I *D wrapped_mc14500
*I *756:io_in[6] I *D wrapped_pdp11
*I *749:io_in_1[6] I *D wrapped_ay8913
*I *755:clk I *D tholin_avalonsemi_tbb1143
*CAP
1 io_in[11] 0.00210571
2 *754:io_in[6] 0.0030392
3 *758:io_in_1[6] 0.000203969
4 *757:io_in[6] 0.000571813
5 *752:io_in[6] 0.000223559
6 *756:io_in[6] 0.00096648
7 *749:io_in_1[6] 0.00306666
8 *755:clk 0.000389408
9 *3:137 0.0147325
10 *3:135 0.0116933
11 *3:133 0.000894857
12 *3:131 0.000894857
13 *3:121 0.00404526
14 *3:117 0.0167834
15 *3:115 0.0129421
16 *3:113 0.00111964
17 *3:111 0.00111964
18 *3:101 0.012319
19 *3:99 0.0117471
20 *3:97 0.000555453
21 *3:95 0.000555453
22 *3:93 0.000645185
23 *3:91 0.000645185
24 *3:83 0.000755765
25 *3:75 0.00226679
26 *3:73 0.00173458
27 *3:55 0.0129524
28 *3:53 0.00988577
29 *3:51 0.0129643
30 *3:49 0.0163331
31 *3:45 0.00361693
32 *3:31 0.00760944
33 *3:29 0.00746815
34 *3:27 0.0135051
35 *3:25 0.0144716
36 *3:23 0.0304792
37 *3:21 0.0308049
38 *3:13 0.00848925
39 *3:11 0.00816354
40 *3:9 0.0078356
41 *3:7 0.00994131
42 *754:io_in[6] *4:111 0.000878113
43 *756:io_in[6] *11:21 0.000248054
44 *757:io_in[6] *757:io_in[7] 0
45 *3:13 *4:13 0.0224268
46 *3:13 *5:13 0.000955621
47 *3:13 *6:21 0.0235885
48 *3:21 *4:21 0.00101404
49 *3:21 *4:23 0.000103092
50 *3:21 *4:53 1.40331e-05
51 *3:21 *554:9 2.84771e-05
52 *3:23 *4:23 0.199968
53 *3:23 *10:17 0.00182424
54 *3:23 *10:37 0.00057643
55 *3:23 *456:15 0.003007
56 *3:23 *539:9 0.00851737
57 *3:23 *554:9 0.00340939
58 *3:23 *556:9 0.0113461
59 *3:27 *11:21 0.0101411
60 *3:27 *488:13 0.00733342
61 *3:27 *504:13 0
62 *3:27 *511:13 0.00197513
63 *3:31 *753:sid_do[14] 0.000190539
64 *3:31 *24:17 0
65 *3:31 *24:23 0
66 *3:31 *24:25 0
67 *3:45 *24:17 2.96968e-05
68 *3:49 *24:17 0.00456619
69 *3:51 *24:13 0
70 *3:75 *4:53 0.129468
71 *3:75 *36:21 0.000107163
72 *3:75 *687:17 0.000627366
73 *3:83 *36:21 0.00165262
74 *3:83 *687:17 0.000132528
75 *3:93 *4:67 0.000270047
76 *3:93 *30:89 0.01696
77 *3:97 *752:clk_i 0.0044244
78 *3:97 *752:sram_out[2] 0.00033116
79 *3:97 *35:29 0.00149077
80 *3:97 *607:17 0.00135904
81 *3:97 *622:17 0.0284045
82 *3:97 *678:13 0.0233083
83 *3:101 *757:io_in[7] 0
84 *3:101 *4:75 0
85 *3:101 *521:13 0.00118828
86 *3:113 *4:87 0.000535146
87 *3:113 *11:77 0.0271307
88 *3:113 *474:13 0.0019559
89 *3:117 *460:33 0.00562245
90 *3:133 *4:101 0.0304866
91 *3:137 *754:io_in[0] 0.0122642
92 *3:137 *4:105 0.107761
93 *3:137 *34:111 2.76367e-05
94 *3:137 *34:121 0.00700257
95 *3:137 *313:132 0
96 *754:io_in[5] *754:io_in[6] 0.0105303
97 *2:59 *3:75 0.127669
98 *2:59 *3:83 0.000667202
99 *2:77 *3:93 0.0150533
100 *2:95 *3:113 0.0160609
101 *2:113 *3:133 0.0257197
*RES
1 io_in[11] *3:7 20.36 
2 *3:7 *3:9 65.832 
3 *3:9 *3:11 4.5 
4 *3:11 *3:13 125.32 
5 *3:13 *3:21 12.328 
6 *3:21 *3:23 541.736 
7 *3:23 *3:25 4.5 
8 *3:25 *3:27 154.648 
9 *3:27 *3:29 4.5 
10 *3:29 *3:31 59.8 
11 *3:31 *755:clk 1.3 
12 *755:clk *3:45 10.56 
13 *3:45 *3:49 41.912 
14 *3:49 *3:51 110.864 
15 *3:51 *3:53 4.5 
16 *3:53 *3:55 80.184 
17 *3:55 *749:io_in_1[6] 29.512 
18 *3:25 *756:io_in[6] 7.02 
19 *3:21 *3:73 4.5 
20 *3:73 *3:75 335.4 
21 *3:75 *3:83 12.3 
22 *3:83 *752:io_in[6] 1.508 
23 *3:83 *3:91 4.5 
24 *3:91 *3:93 45.656 
25 *3:93 *3:95 4.5 
26 *3:95 *3:97 79.976 
27 *3:97 *3:99 4.5 
28 *3:99 *3:101 88.712 
29 *3:101 *757:io_in[6] 3.9 
30 *3:101 *3:111 4.5 
31 *3:111 *3:113 68.952 
32 *3:113 *3:115 4.5 
33 *3:115 *3:117 105.352 
34 *3:117 *3:121 37.052 
35 *3:121 *758:io_in_1[6] 1.196 
36 *3:121 *3:131 4.5 
37 *3:131 *3:133 78.52 
38 *3:133 *3:135 4.5 
39 *3:135 *3:137 272.792 
40 *3:137 *754:io_in[6] 48.052 
*END

*D_NET *4 1.22845
*CONN
*P io_in[12] I
*I *758:io_in_1[7] I *D wrapped_sn76489
*I *754:io_in[7] I *D wrapped_sid
*I *757:io_in[7] I *D wrapped_qcpu
*I *752:io_in[7] I *D wrapped_mc14500
*I *756:io_in[7] I *D wrapped_pdp11
*I *749:io_in_1[7] I *D wrapped_ay8913
*CAP
1 io_in[12] 0.0103
2 *758:io_in_1[7] 0.000118684
3 *754:io_in[7] 0.000885133
4 *757:io_in[7] 0.000483618
5 *752:io_in[7] 0.000167385
6 *756:io_in[7] 0.000997142
7 *749:io_in_1[7] 0.00272756
8 *4:111 0.00135518
9 *4:105 0.0174074
10 *4:103 0.0169374
11 *4:101 0.00627061
12 *4:99 0.0063314
13 *4:93 0.00550491
14 *4:91 0.00532544
15 *4:89 0.00698335
16 *4:87 0.00755075
17 *4:75 0.00338165
18 *4:71 0.00715429
19 *4:69 0.00482366
20 *4:67 0.00908206
21 *4:65 0.00908206
22 *4:57 0.00077002
23 *4:53 0.0135321
24 *4:51 0.0129295
25 *4:35 0.0295712
26 *4:33 0.0268436
27 *4:31 0.0136911
28 *4:29 0.0148657
29 *4:25 0.0021718
30 *4:23 0.0107232
31 *4:21 0.0110724
32 *4:13 0.00387876
33 *4:11 0.00352954
34 *4:9 0.00974681
35 *4:7 0.00974681
36 *4:5 0.0103
37 *757:io_in[7] *757:io_in[8] 0.000162814
38 *4:9 *8:13 0.0191704
39 *4:9 *562:11 0
40 *4:9 *573:11 0.00813826
41 *4:9 *574:9 0
42 *4:13 *7:9 0
43 *4:21 *8:17 1.87342e-05
44 *4:21 *554:9 3.71745e-06
45 *4:23 *756:io_in[10] 0.00111766
46 *4:23 *8:17 0.00205737
47 *4:23 *8:19 0.0018369
48 *4:23 *9:27 0.14171
49 *4:23 *10:25 0
50 *4:23 *545:15 0.00129016