*SPEF "ieee 1481-1999"
*DESIGN "user_project_wrapper"
*DATE "11:11:11 Fri 11 11, 1111"
*VENDOR "OpenRCX"
*PROGRAM "Parallel Extraction"
*VERSION "1.0"
*DESIGN_FLOW "NAME_SCOPE LOCAL" "PIN_CAP NONE"
*DIVIDER /
*DELIMITER :
*BUS_DELIMITER []
*T_UNIT 1 NS
*C_UNIT 1 PF
*R_UNIT 1 OHM
*L_UNIT 1 HENRY

*NAME_MAP
*1 io_in[0]
*2 io_in[10]
*3 io_in[11]
*4 io_in[12]
*5 io_in[13]
*6 io_in[14]
*7 io_in[15]
*8 io_in[16]
*9 io_in[17]
*10 io_in[18]
*11 io_in[19]
*12 io_in[1]
*13 io_in[20]
*14 io_in[21]
*15 io_in[22]
*16 io_in[23]
*17 io_in[24]
*18 io_in[25]
*19 io_in[26]
*20 io_in[27]
*21 io_in[28]
*22 io_in[29]
*23 io_in[2]
*24 io_in[30]
*25 io_in[31]
*26 io_in[32]
*27 io_in[33]
*28 io_in[34]
*29 io_in[35]
*30 io_in[36]
*31 io_in[37]
*32 io_in[3]
*33 io_in[4]
*34 io_in[5]
*35 io_in[6]
*36 io_in[7]
*37 io_in[8]
*38 io_in[9]
*39 io_oeb[0]
*40 io_oeb[10]
*41 io_oeb[11]
*42 io_oeb[12]
*43 io_oeb[13]
*44 io_oeb[14]
*45 io_oeb[15]
*46 io_oeb[16]
*47 io_oeb[17]
*48 io_oeb[18]
*49 io_oeb[19]
*50 io_oeb[1]
*51 io_oeb[20]
*52 io_oeb[21]
*53 io_oeb[22]
*54 io_oeb[23]
*55 io_oeb[24]
*56 io_oeb[25]
*57 io_oeb[26]
*58 io_oeb[27]
*59 io_oeb[28]
*60 io_oeb[29]
*61 io_oeb[2]
*62 io_oeb[30]
*63 io_oeb[31]
*64 io_oeb[32]
*65 io_oeb[33]
*66 io_oeb[34]
*67 io_oeb[35]
*68 io_oeb[36]
*69 io_oeb[37]
*70 io_oeb[3]
*71 io_oeb[4]
*72 io_oeb[5]
*73 io_oeb[6]
*74 io_oeb[7]
*75 io_oeb[8]
*76 io_oeb[9]
*77 io_out[0]
*78 io_out[10]
*79 io_out[11]
*80 io_out[12]
*81 io_out[13]
*82 io_out[14]
*83 io_out[15]
*84 io_out[16]
*85 io_out[17]
*86 io_out[18]
*87 io_out[19]
*88 io_out[1]
*89 io_out[20]
*90 io_out[21]
*91 io_out[22]
*92 io_out[23]
*93 io_out[24]
*94 io_out[25]
*95 io_out[26]
*96 io_out[27]
*97 io_out[28]
*98 io_out[29]
*99 io_out[2]
*100 io_out[30]
*101 io_out[31]
*102 io_out[32]
*103 io_out[33]
*104 io_out[34]
*105 io_out[35]
*106 io_out[36]
*107 io_out[37]
*108 io_out[3]
*109 io_out[4]
*110 io_out[5]
*111 io_out[6]
*112 io_out[7]
*113 io_out[8]
*114 io_out[9]
*115 la_data_in[0]
*116 la_data_in[10]
*117 la_data_in[11]
*118 la_data_in[12]
*119 la_data_in[13]
*120 la_data_in[14]
*121 la_data_in[15]
*122 la_data_in[16]
*123 la_data_in[17]
*124 la_data_in[18]
*125 la_data_in[19]
*126 la_data_in[1]
*127 la_data_in[20]
*128 la_data_in[21]
*129 la_data_in[22]
*130 la_data_in[23]
*131 la_data_in[24]
*132 la_data_in[25]
*133 la_data_in[26]
*134 la_data_in[27]
*135 la_data_in[28]
*136 la_data_in[29]
*137 la_data_in[2]
*138 la_data_in[30]
*139 la_data_in[31]
*140 la_data_in[32]
*141 la_data_in[33]
*142 la_data_in[34]
*143 la_data_in[35]
*144 la_data_in[36]
*145 la_data_in[37]
*146 la_data_in[38]
*147 la_data_in[39]
*148 la_data_in[3]
*149 la_data_in[40]
*150 la_data_in[41]
*151 la_data_in[42]
*152 la_data_in[43]
*153 la_data_in[44]
*154 la_data_in[45]
*155 la_data_in[46]
*156 la_data_in[47]
*157 la_data_in[48]
*158 la_data_in[49]
*159 la_data_in[4]
*160 la_data_in[50]
*161 la_data_in[51]
*162 la_data_in[52]
*163 la_data_in[53]
*164 la_data_in[54]
*165 la_data_in[55]
*166 la_data_in[56]
*167 la_data_in[57]
*168 la_data_in[58]
*169 la_data_in[59]
*170 la_data_in[5]
*171 la_data_in[60]
*172 la_data_in[61]
*173 la_data_in[62]
*174 la_data_in[63]
*175 la_data_in[6]
*176 la_data_in[7]
*177 la_data_in[8]
*178 la_data_in[9]
*179 la_data_out[0]
*180 la_data_out[10]
*181 la_data_out[11]
*182 la_data_out[12]
*183 la_data_out[13]
*184 la_data_out[14]
*185 la_data_out[15]
*186 la_data_out[16]
*187 la_data_out[17]
*188 la_data_out[18]
*189 la_data_out[19]
*190 la_data_out[1]
*191 la_data_out[20]
*192 la_data_out[21]
*193 la_data_out[22]
*194 la_data_out[23]
*195 la_data_out[24]
*196 la_data_out[25]
*197 la_data_out[26]
*198 la_data_out[27]
*199 la_data_out[28]
*200 la_data_out[29]
*201 la_data_out[2]
*202 la_data_out[30]
*203 la_data_out[31]
*204 la_data_out[32]
*205 la_data_out[33]
*206 la_data_out[34]
*207 la_data_out[35]
*208 la_data_out[36]
*209 la_data_out[37]
*210 la_data_out[38]
*211 la_data_out[39]
*212 la_data_out[3]
*213 la_data_out[40]
*214 la_data_out[41]
*215 la_data_out[42]
*216 la_data_out[43]
*217 la_data_out[44]
*218 la_data_out[45]
*219 la_data_out[46]
*220 la_data_out[47]
*221 la_data_out[48]
*222 la_data_out[49]
*223 la_data_out[4]
*224 la_data_out[50]
*225 la_data_out[51]
*226 la_data_out[52]
*227 la_data_out[53]
*228 la_data_out[54]
*229 la_data_out[55]
*230 la_data_out[56]
*231 la_data_out[57]
*232 la_data_out[58]
*233 la_data_out[59]
*234 la_data_out[5]
*235 la_data_out[60]
*236 la_data_out[61]
*237 la_data_out[62]
*238 la_data_out[63]
*239 la_data_out[6]
*240 la_data_out[7]
*241 la_data_out[8]
*242 la_data_out[9]
*243 la_oenb[0]
*244 la_oenb[10]
*245 la_oenb[11]
*246 la_oenb[12]
*247 la_oenb[13]
*248 la_oenb[14]
*249 la_oenb[15]
*250 la_oenb[16]
*251 la_oenb[17]
*252 la_oenb[18]
*253 la_oenb[19]
*254 la_oenb[1]
*255 la_oenb[20]
*256 la_oenb[21]
*257 la_oenb[22]
*258 la_oenb[23]
*259 la_oenb[24]
*260 la_oenb[25]
*261 la_oenb[26]
*262 la_oenb[27]
*263 la_oenb[28]
*264 la_oenb[29]
*265 la_oenb[2]
*266 la_oenb[30]
*267 la_oenb[31]
*268 la_oenb[32]
*269 la_oenb[33]
*270 la_oenb[34]
*271 la_oenb[35]
*272 la_oenb[36]
*273 la_oenb[37]
*274 la_oenb[38]
*275 la_oenb[39]
*276 la_oenb[3]
*277 la_oenb[40]
*278 la_oenb[41]
*279 la_oenb[42]
*280 la_oenb[43]
*281 la_oenb[44]
*282 la_oenb[45]
*283 la_oenb[46]
*284 la_oenb[47]
*285 la_oenb[48]
*286 la_oenb[49]
*287 la_oenb[4]
*288 la_oenb[50]
*289 la_oenb[51]
*290 la_oenb[52]
*291 la_oenb[53]
*292 la_oenb[54]
*293 la_oenb[55]
*294 la_oenb[56]
*295 la_oenb[57]
*296 la_oenb[58]
*297 la_oenb[59]
*298 la_oenb[5]
*299 la_oenb[60]
*300 la_oenb[61]
*301 la_oenb[62]
*302 la_oenb[63]
*303 la_oenb[6]
*304 la_oenb[7]
*305 la_oenb[8]
*306 la_oenb[9]
*307 user_clock2
*308 user_irq[0]
*309 user_irq[1]
*310 user_irq[2]
*313 wb_clk_i
*314 wb_rst_i
*315 wbs_ack_o
*316 wbs_adr_i[0]
*317 wbs_adr_i[10]
*318 wbs_adr_i[11]
*319 wbs_adr_i[12]
*320 wbs_adr_i[13]
*321 wbs_adr_i[14]
*322 wbs_adr_i[15]
*323 wbs_adr_i[16]
*324 wbs_adr_i[17]
*325 wbs_adr_i[18]
*326 wbs_adr_i[19]
*327 wbs_adr_i[1]
*328 wbs_adr_i[20]
*329 wbs_adr_i[21]
*330 wbs_adr_i[22]
*331 wbs_adr_i[23]
*332 wbs_adr_i[24]
*333 wbs_adr_i[25]
*334 wbs_adr_i[26]
*335 wbs_adr_i[27]
*336 wbs_adr_i[28]
*337 wbs_adr_i[29]
*338 wbs_adr_i[2]
*339 wbs_adr_i[30]
*340 wbs_adr_i[31]
*341 wbs_adr_i[3]
*342 wbs_adr_i[4]
*343 wbs_adr_i[5]
*344 wbs_adr_i[6]
*345 wbs_adr_i[7]
*346 wbs_adr_i[8]
*347 wbs_adr_i[9]
*348 wbs_cyc_i
*349 wbs_dat_i[0]
*350 wbs_dat_i[10]
*351 wbs_dat_i[11]
*352 wbs_dat_i[12]
*353 wbs_dat_i[13]
*354 wbs_dat_i[14]
*355 wbs_dat_i[15]
*356 wbs_dat_i[16]
*357 wbs_dat_i[17]
*358 wbs_dat_i[18]
*359 wbs_dat_i[19]
*360 wbs_dat_i[1]
*361 wbs_dat_i[20]
*362 wbs_dat_i[21]
*363 wbs_dat_i[22]
*364 wbs_dat_i[23]
*365 wbs_dat_i[24]
*366 wbs_dat_i[25]
*367 wbs_dat_i[26]
*368 wbs_dat_i[27]
*369 wbs_dat_i[28]
*370 wbs_dat_i[29]
*371 wbs_dat_i[2]
*372 wbs_dat_i[30]
*373 wbs_dat_i[31]
*374 wbs_dat_i[3]
*375 wbs_dat_i[4]
*376 wbs_dat_i[5]
*377 wbs_dat_i[6]
*378 wbs_dat_i[7]
*379 wbs_dat_i[8]
*380 wbs_dat_i[9]
*381 wbs_dat_o[0]
*382 wbs_dat_o[10]
*383 wbs_dat_o[11]
*384 wbs_dat_o[12]
*385 wbs_dat_o[13]
*386 wbs_dat_o[14]
*387 wbs_dat_o[15]
*388 wbs_dat_o[16]
*389 wbs_dat_o[17]
*390 wbs_dat_o[18]
*391 wbs_dat_o[19]
*392 wbs_dat_o[1]
*393 wbs_dat_o[20]
*394 wbs_dat_o[21]
*395 wbs_dat_o[22]
*396 wbs_dat_o[23]
*397 wbs_dat_o[24]
*398 wbs_dat_o[25]
*399 wbs_dat_o[26]
*400 wbs_dat_o[27]
*401 wbs_dat_o[28]
*402 wbs_dat_o[29]
*403 wbs_dat_o[2]
*404 wbs_dat_o[30]
*405 wbs_dat_o[31]
*406 wbs_dat_o[3]
*407 wbs_dat_o[4]
*408 wbs_dat_o[5]
*409 wbs_dat_o[6]
*410 wbs_dat_o[7]
*411 wbs_dat_o[8]
*412 wbs_dat_o[9]
*413 wbs_sel_i[0]
*414 wbs_sel_i[1]
*415 wbs_sel_i[2]
*416 wbs_sel_i[3]
*417 wbs_stb_i
*418 wbs_we_i
*419 ay8913_do\[0\]
*420 ay8913_do\[10\]
*421 ay8913_do\[11\]
*422 ay8913_do\[12\]
*423 ay8913_do\[13\]
*424 ay8913_do\[14\]
*425 ay8913_do\[15\]
*426 ay8913_do\[16\]
*427 ay8913_do\[17\]
*428 ay8913_do\[18\]
*429 ay8913_do\[19\]
*430 ay8913_do\[1\]
*431 ay8913_do\[20\]
*432 ay8913_do\[21\]
*433 ay8913_do\[22\]
*434 ay8913_do\[23\]
*435 ay8913_do\[24\]
*436 ay8913_do\[25\]
*437 ay8913_do\[26\]
*438 ay8913_do\[27\]
*439 ay8913_do\[2\]
*440 ay8913_do\[3\]
*441 ay8913_do\[4\]
*442 ay8913_do\[5\]
*443 ay8913_do\[6\]
*444 ay8913_do\[7\]
*445 ay8913_do\[8\]
*446 ay8913_do\[9\]
*447 blinker_do\[0\]
*448 blinker_do\[1\]
*449 blinker_do\[2\]
*450 custom_settings\[0\]
*451 custom_settings\[10\]
*452 custom_settings\[11\]
*453 custom_settings\[12\]
*454 custom_settings\[13\]
*455 custom_settings\[14\]
*456 custom_settings\[15\]
*457 custom_settings\[16\]
*458 custom_settings\[17\]
*459 custom_settings\[18\]
*460 custom_settings\[19\]
*461 custom_settings\[1\]
*462 custom_settings\[20\]
*463 custom_settings\[21\]
*464 custom_settings\[22\]
*465 custom_settings\[23\]
*466 custom_settings\[24\]
*467 custom_settings\[25\]
*468 custom_settings\[26\]
*469 custom_settings\[27\]
*470 custom_settings\[28\]
*471 custom_settings\[29\]
*472 custom_settings\[2\]
*473 custom_settings\[30\]
*474 custom_settings\[31\]
*475 custom_settings\[3\]
*476 custom_settings\[4\]
*477 custom_settings\[5\]
*478 custom_settings\[6\]
*479 custom_settings\[7\]
*480 custom_settings\[8\]
*481 custom_settings\[9\]
*482 hellorld_do
*483 mc14500_do\[0\]
*484 mc14500_do\[10\]
*485 mc14500_do\[11\]
*486 mc14500_do\[12\]
*487 mc14500_do\[13\]
*488 mc14500_do\[14\]
*489 mc14500_do\[15\]
*490 mc14500_do\[16\]
*491 mc14500_do\[17\]
*492 mc14500_do\[18\]
*493 mc14500_do\[19\]
*494 mc14500_do\[1\]
*495 mc14500_do\[20\]
*496 mc14500_do\[21\]
*497 mc14500_do\[22\]
*498 mc14500_do\[23\]
*499 mc14500_do\[24\]
*500 mc14500_do\[25\]
*501 mc14500_do\[26\]
*502 mc14500_do\[27\]
*503 mc14500_do\[28\]
*504 mc14500_do\[29\]
*505 mc14500_do\[2\]
*506 mc14500_do\[30\]
*507 mc14500_do\[3\]
*508 mc14500_do\[4\]
*509 mc14500_do\[5\]
*510 mc14500_do\[6\]
*511 mc14500_do\[7\]
*512 mc14500_do\[8\]
*513 mc14500_do\[9\]
*514 mc14500_sram_addr\[0\]
*515 mc14500_sram_addr\[1\]
*516 mc14500_sram_addr\[2\]
*517 mc14500_sram_addr\[3\]
*518 mc14500_sram_addr\[4\]
*519 mc14500_sram_addr\[5\]
*520 mc14500_sram_gwe
*521 mc14500_sram_in\[0\]
*522 mc14500_sram_in\[1\]
*523 mc14500_sram_in\[2\]
*524 mc14500_sram_in\[3\]
*525 mc14500_sram_in\[4\]
*526 mc14500_sram_in\[5\]
*527 mc14500_sram_in\[6\]
*528 mc14500_sram_in\[7\]
*529 qcpu_do\[0\]
*530 qcpu_do\[10\]
*531 qcpu_do\[11\]
*532 qcpu_do\[12\]
*533 qcpu_do\[13\]
*534 qcpu_do\[14\]
*535 qcpu_do\[15\]
*536 qcpu_do\[16\]
*537 qcpu_do\[17\]
*538 qcpu_do\[18\]
*539 qcpu_do\[19\]
*540 qcpu_do\[1\]
*541 qcpu_do\[20\]
*542 qcpu_do\[21\]
*543 qcpu_do\[22\]
*544 qcpu_do\[23\]
*545 qcpu_do\[24\]
*546 qcpu_do\[25\]
*547 qcpu_do\[26\]
*548 qcpu_do\[27\]
*549 qcpu_do\[28\]
*550 qcpu_do\[29\]
*551 qcpu_do\[2\]
*552 qcpu_do\[30\]
*553 qcpu_do\[31\]
*554 qcpu_do\[32\]
*555 qcpu_do\[3\]
*556 qcpu_do\[4\]
*557 qcpu_do\[5\]
*558 qcpu_do\[6\]
*559 qcpu_do\[7\]
*560 qcpu_do\[8\]
*561 qcpu_do\[9\]
*562 qcpu_oeb\[0\]
*563 qcpu_oeb\[10\]
*564 qcpu_oeb\[11\]
*565 qcpu_oeb\[12\]
*566 qcpu_oeb\[13\]
*567 qcpu_oeb\[14\]
*568 qcpu_oeb\[15\]
*569 qcpu_oeb\[16\]
*570 qcpu_oeb\[17\]
*571 qcpu_oeb\[18\]
*572 qcpu_oeb\[19\]
*573 qcpu_oeb\[1\]
*574 qcpu_oeb\[20\]
*575 qcpu_oeb\[21\]
*576 qcpu_oeb\[22\]
*577 qcpu_oeb\[23\]
*578 qcpu_oeb\[24\]
*579 qcpu_oeb\[25\]
*580 qcpu_oeb\[26\]
*581 qcpu_oeb\[27\]
*582 qcpu_oeb\[28\]
*583 qcpu_oeb\[29\]
*584 qcpu_oeb\[2\]
*585 qcpu_oeb\[30\]
*586 qcpu_oeb\[31\]
*587 qcpu_oeb\[32\]
*588 qcpu_oeb\[3\]
*589 qcpu_oeb\[4\]
*590 qcpu_oeb\[5\]
*591 qcpu_oeb\[6\]
*592 qcpu_oeb\[7\]
*593 qcpu_oeb\[8\]
*594 qcpu_oeb\[9\]
*595 qcpu_sram_addr\[0\]
*596 qcpu_sram_addr\[1\]
*597 qcpu_sram_addr\[2\]
*598 qcpu_sram_addr\[3\]
*599 qcpu_sram_addr\[4\]
*600 qcpu_sram_addr\[5\]
*601 qcpu_sram_gwe
*602 qcpu_sram_in\[0\]
*603 qcpu_sram_in\[1\]
*604 qcpu_sram_in\[2\]
*605 qcpu_sram_in\[3\]
*606 qcpu_sram_in\[4\]
*607 qcpu_sram_in\[5\]
*608 qcpu_sram_in\[6\]
*609 qcpu_sram_in\[7\]
*610 qcpu_sram_out\[0\]
*611 qcpu_sram_out\[1\]
*612 qcpu_sram_out\[2\]
*613 qcpu_sram_out\[3\]
*614 qcpu_sram_out\[4\]
*615 qcpu_sram_out\[5\]
*616 qcpu_sram_out\[6\]
*617 qcpu_sram_out\[7\]
*618 rst_ay8913
*619 rst_blinker
*620 rst_hellorld
*621 rst_mc14500
*622 rst_qcpu
*623 rst_sid
*624 rst_sn76489
*625 rst_tbb1143
*626 sid_do\[0\]
*627 sid_do\[10\]
*628 sid_do\[11\]
*629 sid_do\[12\]
*630 sid_do\[13\]
*631 sid_do\[14\]
*632 sid_do\[15\]
*633 sid_do\[16\]
*634 sid_do\[17\]
*635 sid_do\[18\]
*636 sid_do\[19\]
*637 sid_do\[1\]
*638 sid_do\[20\]
*639 sid_do\[2\]
*640 sid_do\[3\]
*641 sid_do\[4\]
*642 sid_do\[5\]
*643 sid_do\[6\]
*644 sid_do\[7\]
*645 sid_do\[8\]
*646 sid_do\[9\]
*647 sid_oeb
*648 sn76489_do\[0\]
*649 sn76489_do\[10\]
*650 sn76489_do\[11\]
*651 sn76489_do\[12\]
*652 sn76489_do\[13\]
*653 sn76489_do\[14\]
*654 sn76489_do\[15\]
*655 sn76489_do\[16\]
*656 sn76489_do\[17\]
*657 sn76489_do\[18\]
*658 sn76489_do\[19\]
*659 sn76489_do\[1\]
*660 sn76489_do\[20\]
*661 sn76489_do\[21\]
*662 sn76489_do\[22\]
*663 sn76489_do\[23\]
*664 sn76489_do\[24\]
*665 sn76489_do\[25\]
*666 sn76489_do\[26\]
*667 sn76489_do\[27\]
*668 sn76489_do\[2\]
*669 sn76489_do\[3\]
*670 sn76489_do\[4\]
*671 sn76489_do\[5\]
*672 sn76489_do\[6\]
*673 sn76489_do\[7\]
*674 sn76489_do\[8\]
*675 sn76489_do\[9\]
*676 tbb1143_do\[0\]
*677 tbb1143_do\[1\]
*678 tbb1143_do\[2\]
*679 tbb1143_do\[3\]
*680 tbb1143_do\[4\]
*681 avali_logo
*682 ay8913
*683 blinker
*684 hellorld
*685 mc14500
*686 multiplexer
*687 sid
*688 tbb1143
*689 wrapped_qcpu
*690 wrapped_sn76489

*PORTS
io_in[0] I
io_in[10] I
io_in[11] I
io_in[12] I
io_in[13] I
io_in[14] I
io_in[15] I
io_in[16] I
io_in[17] I
io_in[18] I
io_in[19] I
io_in[1] I
io_in[20] I
io_in[21] I
io_in[22] I
io_in[23] I
io_in[24] I
io_in[25] I
io_in[26] I
io_in[27] I
io_in[28] I
io_in[29] I
io_in[2] I
io_in[30] I
io_in[31] I
io_in[32] I
io_in[33] I
io_in[34] I
io_in[35] I
io_in[36] I
io_in[37] I
io_in[3] I
io_in[4] I
io_in[5] I
io_in[6] I
io_in[7] I
io_in[8] I
io_in[9] I
io_oeb[0] O
io_oeb[10] O
io_oeb[11] O
io_oeb[12] O
io_oeb[13] O
io_oeb[14] O
io_oeb[15] O
io_oeb[16] O
io_oeb[17] O
io_oeb[18] O
io_oeb[19] O
io_oeb[1] O
io_oeb[20] O
io_oeb[21] O
io_oeb[22] O
io_oeb[23] O
io_oeb[24] O
io_oeb[25] O
io_oeb[26] O
io_oeb[27] O
io_oeb[28] O
io_oeb[29] O
io_oeb[2] O
io_oeb[30] O
io_oeb[31] O
io_oeb[32] O
io_oeb[33] O
io_oeb[34] O
io_oeb[35] O
io_oeb[36] O
io_oeb[37] O
io_oeb[3] O
io_oeb[4] O
io_oeb[5] O
io_oeb[6] O
io_oeb[7] O
io_oeb[8] O
io_oeb[9] O
io_out[0] O
io_out[10] O
io_out[11] O
io_out[12] O
io_out[13] O
io_out[14] O
io_out[15] O
io_out[16] O
io_out[17] O
io_out[18] O
io_out[19] O
io_out[1] O
io_out[20] O
io_out[21] O
io_out[22] O
io_out[23] O
io_out[24] O
io_out[25] O
io_out[26] O
io_out[27] O
io_out[28] O
io_out[29] O
io_out[2] O
io_out[30] O
io_out[31] O
io_out[32] O
io_out[33] O
io_out[34] O
io_out[35] O
io_out[36] O
io_out[37] O
io_out[3] O
io_out[4] O
io_out[5] O
io_out[6] O
io_out[7] O
io_out[8] O
io_out[9] O
la_data_in[0] I
la_data_in[10] I
la_data_in[11] I
la_data_in[12] I
la_data_in[13] I
la_data_in[14] I
la_data_in[15] I
la_data_in[16] I
la_data_in[17] I
la_data_in[18] I
la_data_in[19] I
la_data_in[1] I
la_data_in[20] I
la_data_in[21] I
la_data_in[22] I
la_data_in[23] I
la_data_in[24] I
la_data_in[25] I
la_data_in[26] I
la_data_in[27] I
la_data_in[28] I
la_data_in[29] I
la_data_in[2] I
la_data_in[30] I
la_data_in[31] I
la_data_in[32] I
la_data_in[33] I
la_data_in[34] I
la_data_in[35] I
la_data_in[36] I
la_data_in[37] I
la_data_in[38] I
la_data_in[39] I
la_data_in[3] I
la_data_in[40] I
la_data_in[41] I
la_data_in[42] I
la_data_in[43] I
la_data_in[44] I
la_data_in[45] I
la_data_in[46] I
la_data_in[47] I
la_data_in[48] I
la_data_in[49] I
la_data_in[4] I
la_data_in[50] I
la_data_in[51] I
la_data_in[52] I
la_data_in[53] I
la_data_in[54] I
la_data_in[55] I
la_data_in[56] I
la_data_in[57] I
la_data_in[58] I
la_data_in[59] I
la_data_in[5] I
la_data_in[60] I
la_data_in[61] I
la_data_in[62] I
la_data_in[63] I
la_data_in[6] I
la_data_in[7] I
la_data_in[8] I
la_data_in[9] I
la_data_out[0] O
la_data_out[10] O
la_data_out[11] O
la_data_out[12] O
la_data_out[13] O
la_data_out[14] O
la_data_out[15] O
la_data_out[16] O
la_data_out[17] O
la_data_out[18] O
la_data_out[19] O
la_data_out[1] O
la_data_out[20] O
la_data_out[21] O
la_data_out[22] O
la_data_out[23] O
la_data_out[24] O
la_data_out[25] O
la_data_out[26] O
la_data_out[27] O
la_data_out[28] O
la_data_out[29] O
la_data_out[2] O
la_data_out[30] O
la_data_out[31] O
la_data_out[32] O
la_data_out[33] O
la_data_out[34] O
la_data_out[35] O
la_data_out[36] O
la_data_out[37] O
la_data_out[38] O
la_data_out[39] O
la_data_out[3] O
la_data_out[40] O
la_data_out[41] O
la_data_out[42] O
la_data_out[43] O
la_data_out[44] O
la_data_out[45] O
la_data_out[46] O
la_data_out[47] O
la_data_out[48] O
la_data_out[49] O
la_data_out[4] O
la_data_out[50] O
la_data_out[51] O
la_data_out[52] O
la_data_out[53] O
la_data_out[54] O
la_data_out[55] O
la_data_out[56] O
la_data_out[57] O
la_data_out[58] O
la_data_out[59] O
la_data_out[5] O
la_data_out[60] O
la_data_out[61] O
la_data_out[62] O
la_data_out[63] O
la_data_out[6] O
la_data_out[7] O
la_data_out[8] O
la_data_out[9] O
la_oenb[0] I
la_oenb[10] I
la_oenb[11] I
la_oenb[12] I
la_oenb[13] I
la_oenb[14] I
la_oenb[15] I
la_oenb[16] I
la_oenb[17] I
la_oenb[18] I
la_oenb[19] I
la_oenb[1] I
la_oenb[20] I
la_oenb[21] I
la_oenb[22] I
la_oenb[23] I
la_oenb[24] I
la_oenb[25] I
la_oenb[26] I
la_oenb[27] I
la_oenb[28] I
la_oenb[29] I
la_oenb[2] I
la_oenb[30] I
la_oenb[31] I
la_oenb[32] I
la_oenb[33] I
la_oenb[34] I
la_oenb[35] I
la_oenb[36] I
la_oenb[37] I
la_oenb[38] I
la_oenb[39] I
la_oenb[3] I
la_oenb[40] I
la_oenb[41] I
la_oenb[42] I
la_oenb[43] I
la_oenb[44] I
la_oenb[45] I
la_oenb[46] I
la_oenb[47] I
la_oenb[48] I
la_oenb[49] I
la_oenb[4] I
la_oenb[50] I
la_oenb[51] I
la_oenb[52] I
la_oenb[53] I
la_oenb[54] I
la_oenb[55] I
la_oenb[56] I
la_oenb[57] I
la_oenb[58] I
la_oenb[59] I
la_oenb[5] I
la_oenb[60] I
la_oenb[61] I
la_oenb[62] I
la_oenb[63] I
la_oenb[6] I
la_oenb[7] I
la_oenb[8] I
la_oenb[9] I
user_clock2 I
user_irq[0] O
user_irq[1] O
user_irq[2] O
wb_clk_i I
wb_rst_i I
wbs_ack_o O
wbs_adr_i[0] I
wbs_adr_i[10] I
wbs_adr_i[11] I
wbs_adr_i[12] I
wbs_adr_i[13] I
wbs_adr_i[14] I
wbs_adr_i[15] I
wbs_adr_i[16] I
wbs_adr_i[17] I
wbs_adr_i[18] I
wbs_adr_i[19] I
wbs_adr_i[1] I
wbs_adr_i[20] I
wbs_adr_i[21] I
wbs_adr_i[22] I
wbs_adr_i[23] I
wbs_adr_i[24] I
wbs_adr_i[25] I
wbs_adr_i[26] I
wbs_adr_i[27] I
wbs_adr_i[28] I
wbs_adr_i[29] I
wbs_adr_i[2] I
wbs_adr_i[30] I
wbs_adr_i[31] I
wbs_adr_i[3] I
wbs_adr_i[4] I
wbs_adr_i[5] I
wbs_adr_i[6] I
wbs_adr_i[7] I
wbs_adr_i[8] I
wbs_adr_i[9] I
wbs_cyc_i I
wbs_dat_i[0] I
wbs_dat_i[10] I
wbs_dat_i[11] I
wbs_dat_i[12] I
wbs_dat_i[13] I
wbs_dat_i[14] I
wbs_dat_i[15] I
wbs_dat_i[16] I
wbs_dat_i[17] I
wbs_dat_i[18] I
wbs_dat_i[19] I
wbs_dat_i[1] I
wbs_dat_i[20] I
wbs_dat_i[21] I
wbs_dat_i[22] I
wbs_dat_i[23] I
wbs_dat_i[24] I
wbs_dat_i[25] I
wbs_dat_i[26] I
wbs_dat_i[27] I
wbs_dat_i[28] I
wbs_dat_i[29] I
wbs_dat_i[2] I
wbs_dat_i[30] I
wbs_dat_i[31] I
wbs_dat_i[3] I
wbs_dat_i[4] I
wbs_dat_i[5] I
wbs_dat_i[6] I
wbs_dat_i[7] I
wbs_dat_i[8] I
wbs_dat_i[9] I
wbs_dat_o[0] O
wbs_dat_o[10] O
wbs_dat_o[11] O
wbs_dat_o[12] O
wbs_dat_o[13] O
wbs_dat_o[14] O
wbs_dat_o[15] O
wbs_dat_o[16] O
wbs_dat_o[17] O
wbs_dat_o[18] O
wbs_dat_o[19] O
wbs_dat_o[1] O
wbs_dat_o[20] O
wbs_dat_o[21] O
wbs_dat_o[22] O
wbs_dat_o[23] O
wbs_dat_o[24] O
wbs_dat_o[25] O
wbs_dat_o[26] O
wbs_dat_o[27] O
wbs_dat_o[28] O
wbs_dat_o[29] O
wbs_dat_o[2] O
wbs_dat_o[30] O
wbs_dat_o[31] O
wbs_dat_o[3] O
wbs_dat_o[4] O
wbs_dat_o[5] O
wbs_dat_o[6] O
wbs_dat_o[7] O
wbs_dat_o[8] O
wbs_dat_o[9] O
wbs_sel_i[0] I
wbs_sel_i[1] I
wbs_sel_i[2] I
wbs_sel_i[3] I
wbs_stb_i I
wbs_we_i I

*D_NET *1 0.35362
*CONN
*P io_in[0] I
*I *686:io_in[0] I *D multiplexer
*CAP
1 io_in[0] 0.00238082
2 *686:io_in[0] 0.00119404
3 *1:13 0.0569352
4 *1:11 0.0557412
5 *1:9 0.0723331
6 *1:7 0.0747139
7 *686:io_in[0] *686:io_in[1] 0
8 *686:io_in[0] *16:27 0.000385682
9 *686:io_in[0] *29:154 0
10 *1:9 *35:9 0.00439045
11 *1:13 *686:io_in[23] 0.000764017
12 *1:13 *12:13 0
13 *1:13 *16:25 0.013042
14 *1:13 *19:31 0.000172745
15 *1:13 *21:23 0.000102803
16 *1:13 *24:67 0.00115943
17 *1:13 *27:29 0.00184972
18 *1:13 *32:13 0
19 *1:13 *77:9 0.030063
20 *1:13 *114:9 0.00380755
21 *1:13 *309:9 0.0145991
22 *1:13 *424:25 0.00402931
23 *1:13 *426:17 0.00374724
24 *1:13 *428:17 0.00407723
25 *1:13 *519:17 0.00813172
*RES
1 io_in[0] *1:7 20.65 
2 *1:7 *1:9 521.868 
3 *1:9 *1:11 4.5 
4 *1:11 *1:13 190.068 
5 *1:13 *686:io_in[0] 21.3416 
*END

*D_NET *2 0.91236
*CONN
*P io_in[10] I
*I *686:io_in[10] I *D multiplexer
*I *682:io_in_1[5] I *D wrapped_ay8913
*I *688:io_in[5] I *D tholin_avalonsemi_tbb1143
*I *687:io_in[5] I *D wrapped_sid
*I *690:io_in_1[5] I *D wrapped_sn76489
*I *689:io_in[5] I *D wrapped_qcpu
*I *685:io_in[5] I *D wrapped_mc14500
*CAP
1 io_in[10] 0.0133704
2 *686:io_in[10] 0.000794922
3 *682:io_in_1[5] 0.00219155
4 *688:io_in[5] 0.000168656
5 *687:io_in[5] 0.00126262
6 *690:io_in_1[5] 0.000143912
7 *689:io_in[5] 0.000511278
8 *685:io_in[5] 0.000336041
9 *2:129 0.0134123
10 *2:127 0.0112208
11 *2:125 0.0121747
12 *2:123 0.0121747
13 *2:115 0.00534083
14 *2:105 0.0096398
15 *2:99 0.00673506
16 *2:97 0.00462897
17 *2:93 0.0206207
18 *2:91 0.0174643
19 *2:77 0.00283674
20 *2:75 0.00157412
21 *2:73 0.00389034
22 *2:71 0.00389034
23 *2:61 0.00716304
24 *2:59 0.00701913
25 *2:57 0.0130668
26 *2:55 0.0135934
27 *2:43 0.0112824
28 *2:41 0.0102444
29 *2:39 0.000223842
30 *2:37 0.00241452
31 *2:23 0.00281062
32 *2:19 0.0174868
33 *2:17 0.0196088
34 *2:5 0.0157764
35 *682:io_in_1[5] *424:21 0.000619156
36 *682:io_in_1[5] *434:13 0.00751077
37 *686:io_in[10] *686:io_in[11] 0
38 *686:io_in[10] *686:io_in[9] 0
39 *687:io_in[5] *687:io_in[2] 9.27826e-05
40 *687:io_in[5] *687:io_in[4] 0.00633449
41 *687:io_in[5] *687:io_in[6] 0.00804346
42 *687:io_in[5] *687:io_in[7] 0.000492581
43 *687:io_in[5] *336:13 0.000184139
44 *2:5 *45:13 0.00283146
45 *2:17 *3:17 0.000510849
46 *2:17 *4:17 0.000396912
47 *2:17 *38:80 0.00367717
48 *2:17 *99:9 0.000154815
49 *2:19 *3:17 0.000285933
50 *2:19 *3:19 0.0886544
51 *2:19 *3:27 0.000585944
52 *2:19 *36:68 2.79375e-05
53 *2:19 *36:70 0.00107402
54 *2:19 *621:17 0.00170719
55 *2:37 *4:35 0.0115822
56 *2:39 *4:37 0.0232003
57 *2:39 *34:13 0
58 *2:39 *548:9 0.0251421
59 *2:39 *610:13 0.000929043
60 *2:43 *518:13 0.00133675
61 *2:55 *4:53 0.00177834
62 *2:55 *26:51 0
63 *2:55 *34:39 0.00564428
64 *2:55 *36:84 0.000657667
65 *2:55 *36:88 0.00720517
66 *2:57 *467:9 0.00241618
67 *2:73 *3:77 0.0195433
68 *2:73 *4:69 0.000469516
69 *2:77 *683:rst_n 0.00147066
70 *2:77 *4:73 0.0819042
71 *2:77 *35:71 0.0754122
72 *2:77 *37:117 0
73 *2:93 *686:io_in[21] 0.00122819
74 *2:93 *4:95 0.0149672
75 *2:93 *5:25 0.0135386
76 *2:93 *8:17 0.000569434
77 *2:93 *8:19 0.121645
78 *2:93 *14:23 0.00068962
79 *2:93 *445:16 0.0149525
80 *2:93 *624:9 0.0271622
81 *2:97 *14:23 0.00269956
82 *2:97 *445:16 0.00277244
83 *2:99 *27:25 0.0104069
84 *2:99 *40:6 0.00239415
85 *2:99 *46:9 0.00670665
86 *2:105 *686:mc14500_do[13] 0.000532855
87 *2:125 *37:43 0.00531856
88 *2:129 *4:105 0
89 *2:129 *450:114 0.0398263
*RES
1 io_in[10] *2:5 102.638 
2 *2:5 *2:17 35.008 
3 *2:17 *2:19 226.86 
4 *2:19 *2:23 6.4 
5 *2:23 *685:io_in[5] 2.09 
6 *2:23 *2:37 37.804 
7 *2:37 *2:39 60.876 
8 *2:39 *2:41 4.5 
9 *2:41 *2:43 66.044 
10 *2:43 *689:io_in[5] 2.774 
11 *2:43 *2:55 32.028 
12 *2:55 *2:57 86.564 
13 *2:57 *2:59 4.5 
14 *2:59 *2:61 48.716 
15 *2:61 *690:io_in_1[5] 0.722 
16 *2:61 *2:71 4.5 
17 *2:71 *2:73 51.148 
18 *2:73 *2:75 4.5 
19 *2:75 *2:77 199.652 
20 *2:77 *687:io_in[5] 36.322 
21 *2:17 *2:91 4.5 
22 *2:91 *2:93 354.084 
23 *2:93 *2:97 27.528 
24 *2:97 *2:99 54.036 
25 *2:99 *2:105 34.216 
26 *2:105 *2:115 44.264 
27 *2:115 *688:io_in[5] 0.95 
28 *2:115 *2:123 4.5 
29 *2:123 *2:125 81.244 
30 *2:125 *2:127 4.5 
31 *2:127 *2:129 126.54 
32 *2:129 *682:io_in_1[5] 32.37 
33 *2:93 *686:io_in[10] 8.49 
*END

*D_NET *3 0.880781
*CONN
*P io_in[11] I
*I *686:io_in[11] I *D multiplexer
*I *682:io_in_1[6] I *D wrapped_ay8913
*I *688:clk I *D tholin_avalonsemi_tbb1143
*I *687:io_in[6] I *D wrapped_sid
*I *690:io_in_1[6] I *D wrapped_sn76489
*I *689:io_in[6] I *D wrapped_qcpu
*I *685:io_in[6] I *D wrapped_mc14500
*CAP
1 io_in[11] 0.00177582
2 *686:io_in[11] 0.000630439
3 *682:io_in_1[6] 0.00361738
4 *688:clk 0.00460165
5 *687:io_in[6] 0.00106134
6 *690:io_in_1[6] 0.000169856
7 *689:io_in[6] 0.00049658
8 *685:io_in[6] 0.00015338
9 *3:127 0.0123963
10 *3:125 0.00877895
11 *3:123 0.0104742
12 *3:121 0.0149468
13 *3:107 0.00880188
14 *3:105 0.00867289
15 *3:103 0.00973495
16 *3:101 0.0105172
17 *3:97 0.0304805
18 *3:95 0.0290678
19 *3:81 0.00978852
20 *3:79 0.00872719
21 *3:77 0.000744316
22 *3:75 0.000744316
23 *3:65 0.00249153
24 *3:61 0.0138639
25 *3:59 0.0115423
26 *3:57 0.00119484
27 *3:55 0.00119484
28 *3:45 0.0105625
29 *3:43 0.0100659
30 *3:41 0.000357345
31 *3:39 0.000709572
32 *3:27 0.000992835
33 *3:19 0.00095678
34 *3:17 0.0013653
35 *3:13 0.00926275
36 *3:11 0.00836701
37 *3:9 0.00983279
38 *3:7 0.0116086
39 *686:io_in[11] *686:io_in[12] 0
40 *686:io_in[11] *9:51 7.95844e-06
41 *687:io_in[6] *687:io_in[7] 0.00964736
42 *687:io_in[6] *336:13 0
43 *3:13 *33:13 0
44 *3:13 *308:9 0.0119757
45 *3:17 *4:17 0.00067329
46 *3:17 *4:19 7.83779e-05
47 *3:17 *38:80 0.000166484
48 *3:19 *4:19 0.0884273
49 *3:19 *36:68 9.47101e-05
50 *3:19 *621:17 0.000489699
51 *3:27 *36:68 0.00125205
52 *3:27 *621:17 0.000107193
53 *3:39 *685:SDI 0.012851
54 *3:39 *4:35 0.0127988
55 *3:41 *685:clk_i 0.0036092
56 *3:41 *685:sram_out[3] 0.000188292
57 *3:41 *35:29 0.000187643
58 *3:41 *554:9 0.0239083
59 *3:41 *613:13 0.0186203
60 *3:41 *617:13 0.000256136
61 *3:45 *523:13 0.000856958
62 *3:57 *4:53 0.0169193
63 *3:57 *11:99 0.0233876
64 *3:57 *34:39 0.000928165
65 *3:61 *457:9 0.00562796
66 *3:65 *689:custom_settings[13] 0.000178945
67 *3:77 *4:69 0.0232173
68 *3:81 *34:57 0
69 *3:81 *36:110 0.0161136
70 *3:81 *38:45 0.040404
71 *3:97 *4:95 0.136466
72 *3:97 *4:99 0.000488502
73 *3:97 *104:9 0
74 *3:97 *113:9 0
75 *3:97 *514:17 0
76 *3:97 *515:17 0
77 *3:101 *4:99 0.0111449
78 *3:101 *35:131 0.00883016
79 *3:101 *104:9 0
80 *3:103 *484:13 0
81 *3:103 *487:13 0
82 *3:103 *506:21 0.0205219
83 *3:103 *620:11 0
84 *3:107 *686:sid_do[13] 0
85 *3:121 *24:13 0.00198059
86 *686:io_in[10] *686:io_in[11] 0
87 *687:io_in[5] *687:io_in[6] 0.00804346
88 *2:17 *3:17 0.000510849
89 *2:19 *3:17 0.000285933
90 *2:19 *3:19 0.0886544
91 *2:19 *3:27 0.000585944
92 *2:73 *3:77 0.0195433
*RES
1 io_in[11] *3:7 16.09 
2 *3:7 *3:9 66.956 
3 *3:9 *3:11 4.5 
4 *3:11 *3:13 92.188 
5 *3:13 *3:17 12.328 
6 *3:17 *3:19 220.172 
7 *3:19 *3:27 10.352 
8 *3:27 *685:io_in[6] 0.95 
9 *3:27 *3:39 42.516 
10 *3:39 *3:41 58.292 
11 *3:41 *3:43 4.5 
12 *3:43 *3:45 64.676 
13 *3:45 *689:io_in[6] 2.85 
14 *3:45 *3:55 4.5 
15 *3:55 *3:57 57.228 
16 *3:57 *3:59 4.5 
17 *3:59 *3:61 76.988 
18 *3:61 *3:65 21.448 
19 *3:65 *690:io_in_1[6] 0.874 
20 *3:65 *3:75 4.5 
21 *3:75 *3:77 57.532 
22 *3:77 *3:79 4.5 
23 *3:79 *3:81 199.652 
24 *3:81 *687:io_in[6] 37.386 
25 *3:17 *3:95 4.5 
26 *3:95 *3:97 353.02 
27 *3:97 *3:101 33.76 
28 *3:101 *3:103 88.084 
29 *3:103 *3:105 4.5 
30 *3:105 *3:107 57.38 
31 *3:107 *688:clk 0.95 
32 *688:clk *3:121 31.73 
33 *3:121 *3:123 74.176 
34 *3:123 *3:125 4.5 
35 *3:125 *3:127 58.596 
36 *3:127 *682:io_in_1[6] 29.618 
37 *3:97 *686:io_in[11] 7.73 
*END

*D_NET *4 0.886755
*CONN
*P io_in[12] I
*I *686:io_in[12] I *D multiplexer
*I *682:io_in_1[7] I *D wrapped_ay8913
*I *690:io_in_1[7] I *D wrapped_sn76489
*I *687:io_in[7] I *D wrapped_sid
*I *689:io_in[7] I *D wrapped_qcpu
*I *685:io_in[7] I *D wrapped_mc14500
*CAP
1 io_in[12] 0.0142462
2 *686:io_in[12] 0.000650676
3 *682:io_in_1[7] 0.000875843
4 *690:io_in_1[7] 0.000108346
5 *687:io_in[7] 0.00330699
6 *689:io_in[7] 0.000556431
7 *685:io_in[7] 0.000204776
8 *4:105 0.0249488
9 *4:103 0.024073
10 *4:101 0.0209618
11 *4:99 0.0216556
12 *4:95 0.0135478
13 *4:93 0.0122034
14 *4:73 0.0183005
15 *4:71 0.0149935
16 *4:69 0.00588365
17 *4:67 0.00593632
18 *4:61 0.00323171
19 *4:57 0.0133116
20 *4:55 0.0102409
21 *4:53 0.000647682
22 *4:41 0.0106518
23 *4:39 0.00944766
24 *4:37 0.000209082
25 *4:35 0.000846269
26 *4:23 0.00128247
27 *4:19 0.00883931
28 *4:17 0.00877917
29 *4:9 0.019092
30 *4:7 0.0187117
31 *4:5 0.0142462
32 *686:io_in[12] *686:io_in[13] 0
33 *686:io_in[12] *9:51 6.92115e-05
34 *687:io_in[7] *336:13 0
35 *689:io_in[7] *689:io_in[8] 5.89095e-05
36 *4:17 *32:13 0.000129213
37 *4:17 *38:80 0.000116133
38 *4:17 *99:9 0.000219856
39 *4:19 *36:68 0.0111715
40 *4:19 *38:9 0.0114643
41 *4:19 *38:80 0.00240979
42 *4:19 *621:17 0.000472186
43 *4:35 *685:SDI 0.000694464
44 *4:37 *685:sram_out[4] 0.00116039
45 *4:37 *30:53 0.00539808
46 *4:37 *34:13 8.64281e-06
47 *4:37 *610:13 0.0153611
48 *4:41 *689:io_in[8] 0.00191357
49 *4:41 *521:13 0.00114503
50 *4:53 *11:99 0.000469293
51 *4:53 *34:39 0.0122264
52 *4:57 *462:9 0.00412518
53 *4:61 *689:custom_settings[15] 0.00549205
54 *4:73 *683:rst_n 2.62889e-05
55 *4:73 *34:57 0
56 *4:73 *37:117 0
57 *4:95 *686:ay8913_do[15] 0.0106644
58 *4:95 *446:18 0.0450836
59 *4:95 *624:9 0.000818825
60 *4:99 *35:131 0.0024571
61 *4:99 *446:18 0.0169559
62 *4:101 *513:13 0
63 *686:io_in[11] *686:io_in[12] 0
64 *687:io_in[5] *687:io_in[7] 0.000492581
65 *687:io_in[6] *687:io_in[7] 0.00964736
66 *2:17 *4:17 0.000396912
67 *2:37 *4:35 0.0115822
68 *2:39 *4:37 0.0232003
69 *2:55 *4:53 0.00177834
70 *2:73 *4:69 0.000469516
71 *2:77 *4:73 0.0819042
72 *2:93 *4:95 0.0149672
73 *2:129 *4:105 0
74 *3:17 *4:17 0.00067329
75 *3:17 *4:19 7.83779e-05
76 *3:19 *4:19 0.0884273
77 *3:39 *4:35 0.0127988
78 *3:57 *4:53 0.0169193
79 *3:77 *4:69 0.0232173
80 *3:97 *4:95 0.136466
81 *3:97 *4:99 0.000488502
82 *3:101 *4:99 0.0111449
*RES
1 io_in[12] *4:5 100.51 
2 *4:5 *4:7 4.5 
3 *4:7 *4:9 126.692 
4 *4:9 *4:17 13.864 
5 *4:17 *4:19 219.716 
6 *4:19 *4:23 6.856 
7 *4:23 *685:io_in[7] 1.102 
8 *4:23 *4:35 44.492 
9 *4:35 *4:37 56.164 
10 *4:37 *4:39 4.5 
11 *4:39 *4:41 66.196 