*SPEF "ieee 1481-1999"
*DESIGN "user_project_wrapper"
*DATE "11:11:11 Fri 11 11, 1111"
*VENDOR "OpenRCX"
*PROGRAM "Parallel Extraction"
*VERSION "1.0"
*DESIGN_FLOW "NAME_SCOPE LOCAL" "PIN_CAP NONE"
*DIVIDER /
*DELIMITER :
*BUS_DELIMITER []
*T_UNIT 1 NS
*C_UNIT 1 PF
*R_UNIT 1 OHM
*L_UNIT 1 HENRY

*NAME_MAP
*1 io_in[0]
*2 io_in[10]
*3 io_in[11]
*4 io_in[12]
*5 io_in[13]
*6 io_in[14]
*7 io_in[15]
*8 io_in[16]
*9 io_in[17]
*10 io_in[18]
*11 io_in[19]
*12 io_in[1]
*13 io_in[20]
*14 io_in[21]
*15 io_in[22]
*16 io_in[23]
*17 io_in[24]
*18 io_in[25]
*19 io_in[26]
*20 io_in[27]
*21 io_in[28]
*22 io_in[29]
*23 io_in[2]
*24 io_in[30]
*25 io_in[31]
*26 io_in[32]
*27 io_in[33]
*28 io_in[34]
*29 io_in[35]
*30 io_in[36]
*31 io_in[37]
*32 io_in[3]
*33 io_in[4]
*34 io_in[5]
*35 io_in[6]
*36 io_in[7]
*37 io_in[8]
*38 io_in[9]
*39 io_oeb[0]
*40 io_oeb[10]
*41 io_oeb[11]
*42 io_oeb[12]
*43 io_oeb[13]
*44 io_oeb[14]
*45 io_oeb[15]
*46 io_oeb[16]
*47 io_oeb[17]
*48 io_oeb[18]
*49 io_oeb[19]
*50 io_oeb[1]
*51 io_oeb[20]
*52 io_oeb[21]
*53 io_oeb[22]
*54 io_oeb[23]
*55 io_oeb[24]
*56 io_oeb[25]
*57 io_oeb[26]
*58 io_oeb[27]
*59 io_oeb[28]
*60 io_oeb[29]
*61 io_oeb[2]
*62 io_oeb[30]
*63 io_oeb[31]
*64 io_oeb[32]
*65 io_oeb[33]
*66 io_oeb[34]
*67 io_oeb[35]
*68 io_oeb[36]
*69 io_oeb[37]
*70 io_oeb[3]
*71 io_oeb[4]
*72 io_oeb[5]
*73 io_oeb[6]
*74 io_oeb[7]
*75 io_oeb[8]
*76 io_oeb[9]
*77 io_out[0]
*78 io_out[10]
*79 io_out[11]
*80 io_out[12]
*81 io_out[13]
*82 io_out[14]
*83 io_out[15]
*84 io_out[16]
*85 io_out[17]
*86 io_out[18]
*87 io_out[19]
*88 io_out[1]
*89 io_out[20]
*90 io_out[21]
*91 io_out[22]
*92 io_out[23]
*93 io_out[24]
*94 io_out[25]
*95 io_out[26]
*96 io_out[27]
*97 io_out[28]
*98 io_out[29]
*99 io_out[2]
*100 io_out[30]
*101 io_out[31]
*102 io_out[32]
*103 io_out[33]
*104 io_out[34]
*105 io_out[35]
*106 io_out[36]
*107 io_out[37]
*108 io_out[3]
*109 io_out[4]
*110 io_out[5]
*111 io_out[6]
*112 io_out[7]
*113 io_out[8]
*114 io_out[9]
*115 la_data_in[0]
*116 la_data_in[10]
*117 la_data_in[11]
*118 la_data_in[12]
*119 la_data_in[13]
*120 la_data_in[14]
*121 la_data_in[15]
*122 la_data_in[16]
*123 la_data_in[17]
*124 la_data_in[18]
*125 la_data_in[19]
*126 la_data_in[1]
*127 la_data_in[20]
*128 la_data_in[21]
*129 la_data_in[22]
*130 la_data_in[23]
*131 la_data_in[24]
*132 la_data_in[25]
*133 la_data_in[26]
*134 la_data_in[27]
*135 la_data_in[28]
*136 la_data_in[29]
*137 la_data_in[2]
*138 la_data_in[30]
*139 la_data_in[31]
*140 la_data_in[32]
*141 la_data_in[33]
*142 la_data_in[34]
*143 la_data_in[35]
*144 la_data_in[36]
*145 la_data_in[37]
*146 la_data_in[38]
*147 la_data_in[39]
*148 la_data_in[3]
*149 la_data_in[40]
*150 la_data_in[41]
*151 la_data_in[42]
*152 la_data_in[43]
*153 la_data_in[44]
*154 la_data_in[45]
*155 la_data_in[46]
*156 la_data_in[47]
*157 la_data_in[48]
*158 la_data_in[49]
*159 la_data_in[4]
*160 la_data_in[50]
*161 la_data_in[51]
*162 la_data_in[52]
*163 la_data_in[53]
*164 la_data_in[54]
*165 la_data_in[55]
*166 la_data_in[56]
*167 la_data_in[57]
*168 la_data_in[58]
*169 la_data_in[59]
*170 la_data_in[5]
*171 la_data_in[60]
*172 la_data_in[61]
*173 la_data_in[62]
*174 la_data_in[63]
*175 la_data_in[6]
*176 la_data_in[7]
*177 la_data_in[8]
*178 la_data_in[9]
*179 la_data_out[0]
*180 la_data_out[10]
*181 la_data_out[11]
*182 la_data_out[12]
*183 la_data_out[13]
*184 la_data_out[14]
*185 la_data_out[15]
*186 la_data_out[16]
*187 la_data_out[17]
*188 la_data_out[18]
*189 la_data_out[19]
*190 la_data_out[1]
*191 la_data_out[20]
*192 la_data_out[21]
*193 la_data_out[22]
*194 la_data_out[23]
*195 la_data_out[24]
*196 la_data_out[25]
*197 la_data_out[26]
*198 la_data_out[27]
*199 la_data_out[28]
*200 la_data_out[29]
*201 la_data_out[2]
*202 la_data_out[30]
*203 la_data_out[31]
*204 la_data_out[32]
*205 la_data_out[33]
*206 la_data_out[34]
*207 la_data_out[35]
*208 la_data_out[36]
*209 la_data_out[37]
*210 la_data_out[38]
*211 la_data_out[39]
*212 la_data_out[3]
*213 la_data_out[40]
*214 la_data_out[41]
*215 la_data_out[42]
*216 la_data_out[43]
*217 la_data_out[44]
*218 la_data_out[45]
*219 la_data_out[46]
*220 la_data_out[47]
*221 la_data_out[48]
*222 la_data_out[49]
*223 la_data_out[4]
*224 la_data_out[50]
*225 la_data_out[51]
*226 la_data_out[52]
*227 la_data_out[53]
*228 la_data_out[54]
*229 la_data_out[55]
*230 la_data_out[56]
*231 la_data_out[57]
*232 la_data_out[58]
*233 la_data_out[59]
*234 la_data_out[5]
*235 la_data_out[60]
*236 la_data_out[61]
*237 la_data_out[62]
*238 la_data_out[63]
*239 la_data_out[6]
*240 la_data_out[7]
*241 la_data_out[8]
*242 la_data_out[9]
*243 la_oenb[0]
*244 la_oenb[10]
*245 la_oenb[11]
*246 la_oenb[12]
*247 la_oenb[13]
*248 la_oenb[14]
*249 la_oenb[15]
*250 la_oenb[16]
*251 la_oenb[17]
*252 la_oenb[18]
*253 la_oenb[19]
*254 la_oenb[1]
*255 la_oenb[20]
*256 la_oenb[21]
*257 la_oenb[22]
*258 la_oenb[23]
*259 la_oenb[24]
*260 la_oenb[25]
*261 la_oenb[26]
*262 la_oenb[27]
*263 la_oenb[28]
*264 la_oenb[29]
*265 la_oenb[2]
*266 la_oenb[30]
*267 la_oenb[31]
*268 la_oenb[32]
*269 la_oenb[33]
*270 la_oenb[34]
*271 la_oenb[35]
*272 la_oenb[36]
*273 la_oenb[37]
*274 la_oenb[38]
*275 la_oenb[39]
*276 la_oenb[3]
*277 la_oenb[40]
*278 la_oenb[41]
*279 la_oenb[42]
*280 la_oenb[43]
*281 la_oenb[44]
*282 la_oenb[45]
*283 la_oenb[46]
*284 la_oenb[47]
*285 la_oenb[48]
*286 la_oenb[49]
*287 la_oenb[4]
*288 la_oenb[50]
*289 la_oenb[51]
*290 la_oenb[52]
*291 la_oenb[53]
*292 la_oenb[54]
*293 la_oenb[55]
*294 la_oenb[56]
*295 la_oenb[57]
*296 la_oenb[58]
*297 la_oenb[59]
*298 la_oenb[5]
*299 la_oenb[60]
*300 la_oenb[61]
*301 la_oenb[62]
*302 la_oenb[63]
*303 la_oenb[6]
*304 la_oenb[7]
*305 la_oenb[8]
*306 la_oenb[9]
*307 user_clock2
*308 user_irq[0]
*309 user_irq[1]
*310 user_irq[2]
*313 wb_clk_i
*314 wb_rst_i
*315 wbs_ack_o
*316 wbs_adr_i[0]
*317 wbs_adr_i[10]
*318 wbs_adr_i[11]
*319 wbs_adr_i[12]
*320 wbs_adr_i[13]
*321 wbs_adr_i[14]
*322 wbs_adr_i[15]
*323 wbs_adr_i[16]
*324 wbs_adr_i[17]
*325 wbs_adr_i[18]
*326 wbs_adr_i[19]
*327 wbs_adr_i[1]
*328 wbs_adr_i[20]
*329 wbs_adr_i[21]
*330 wbs_adr_i[22]
*331 wbs_adr_i[23]
*332 wbs_adr_i[24]
*333 wbs_adr_i[25]
*334 wbs_adr_i[26]
*335 wbs_adr_i[27]
*336 wbs_adr_i[28]
*337 wbs_adr_i[29]
*338 wbs_adr_i[2]
*339 wbs_adr_i[30]
*340 wbs_adr_i[31]
*341 wbs_adr_i[3]
*342 wbs_adr_i[4]
*343 wbs_adr_i[5]
*344 wbs_adr_i[6]
*345 wbs_adr_i[7]
*346 wbs_adr_i[8]
*347 wbs_adr_i[9]
*348 wbs_cyc_i
*349 wbs_dat_i[0]
*350 wbs_dat_i[10]
*351 wbs_dat_i[11]
*352 wbs_dat_i[12]
*353 wbs_dat_i[13]
*354 wbs_dat_i[14]
*355 wbs_dat_i[15]
*356 wbs_dat_i[16]
*357 wbs_dat_i[17]
*358 wbs_dat_i[18]
*359 wbs_dat_i[19]
*360 wbs_dat_i[1]
*361 wbs_dat_i[20]
*362 wbs_dat_i[21]
*363 wbs_dat_i[22]
*364 wbs_dat_i[23]
*365 wbs_dat_i[24]
*366 wbs_dat_i[25]
*367 wbs_dat_i[26]
*368 wbs_dat_i[27]
*369 wbs_dat_i[28]
*370 wbs_dat_i[29]
*371 wbs_dat_i[2]
*372 wbs_dat_i[30]
*373 wbs_dat_i[31]
*374 wbs_dat_i[3]
*375 wbs_dat_i[4]
*376 wbs_dat_i[5]
*377 wbs_dat_i[6]
*378 wbs_dat_i[7]
*379 wbs_dat_i[8]
*380 wbs_dat_i[9]
*381 wbs_dat_o[0]
*382 wbs_dat_o[10]
*383 wbs_dat_o[11]
*384 wbs_dat_o[12]
*385 wbs_dat_o[13]
*386 wbs_dat_o[14]
*387 wbs_dat_o[15]
*388 wbs_dat_o[16]
*389 wbs_dat_o[17]
*390 wbs_dat_o[18]
*391 wbs_dat_o[19]
*392 wbs_dat_o[1]
*393 wbs_dat_o[20]
*394 wbs_dat_o[21]
*395 wbs_dat_o[22]
*396 wbs_dat_o[23]
*397 wbs_dat_o[24]
*398 wbs_dat_o[25]
*399 wbs_dat_o[26]
*400 wbs_dat_o[27]
*401 wbs_dat_o[28]
*402 wbs_dat_o[29]
*403 wbs_dat_o[2]
*404 wbs_dat_o[30]
*405 wbs_dat_o[31]
*406 wbs_dat_o[3]
*407 wbs_dat_o[4]
*408 wbs_dat_o[5]
*409 wbs_dat_o[6]
*410 wbs_dat_o[7]
*411 wbs_dat_o[8]
*412 wbs_dat_o[9]
*413 wbs_sel_i[0]
*414 wbs_sel_i[1]
*415 wbs_sel_i[2]
*416 wbs_sel_i[3]
*417 wbs_stb_i
*418 wbs_we_i
*419 blinker_do\[0\]
*420 blinker_do\[1\]
*421 blinker_do\[2\]
*422 custom_settings\[0\]
*423 custom_settings\[10\]
*424 custom_settings\[11\]
*425 custom_settings\[12\]
*426 custom_settings\[13\]
*427 custom_settings\[14\]
*428 custom_settings\[15\]
*429 custom_settings\[16\]
*430 custom_settings\[17\]
*431 custom_settings\[18\]
*432 custom_settings\[19\]
*433 custom_settings\[1\]
*434 custom_settings\[20\]
*435 custom_settings\[21\]
*436 custom_settings\[22\]
*437 custom_settings\[23\]
*438 custom_settings\[24\]
*439 custom_settings\[25\]
*440 custom_settings\[26\]
*441 custom_settings\[27\]
*442 custom_settings\[28\]
*443 custom_settings\[29\]
*444 custom_settings\[2\]
*445 custom_settings\[30\]
*446 custom_settings\[31\]
*447 custom_settings\[3\]
*448 custom_settings\[4\]
*449 custom_settings\[5\]
*450 custom_settings\[6\]
*451 custom_settings\[7\]
*452 custom_settings\[8\]
*453 custom_settings\[9\]
*454 mc14500_do\[0\]
*455 mc14500_do\[10\]
*456 mc14500_do\[11\]
*457 mc14500_do\[12\]
*458 mc14500_do\[13\]
*459 mc14500_do\[14\]
*460 mc14500_do\[15\]
*461 mc14500_do\[16\]
*462 mc14500_do\[17\]
*463 mc14500_do\[18\]
*464 mc14500_do\[19\]
*465 mc14500_do\[1\]
*466 mc14500_do\[20\]
*467 mc14500_do\[21\]
*468 mc14500_do\[22\]
*469 mc14500_do\[23\]
*470 mc14500_do\[24\]
*471 mc14500_do\[25\]
*472 mc14500_do\[26\]
*473 mc14500_do\[27\]
*474 mc14500_do\[28\]
*475 mc14500_do\[29\]
*476 mc14500_do\[2\]
*477 mc14500_do\[30\]
*478 mc14500_do\[3\]
*479 mc14500_do\[4\]
*480 mc14500_do\[5\]
*481 mc14500_do\[6\]
*482 mc14500_do\[7\]
*483 mc14500_do\[8\]
*484 mc14500_do\[9\]
*485 mc14500_sram_addr\[0\]
*486 mc14500_sram_addr\[1\]
*487 mc14500_sram_addr\[2\]
*488 mc14500_sram_addr\[3\]
*489 mc14500_sram_addr\[4\]
*490 mc14500_sram_addr\[5\]
*491 mc14500_sram_gwe
*492 mc14500_sram_in\[0\]
*493 mc14500_sram_in\[1\]
*494 mc14500_sram_in\[2\]
*495 mc14500_sram_in\[3\]
*496 mc14500_sram_in\[4\]
*497 mc14500_sram_in\[5\]
*498 mc14500_sram_in\[6\]
*499 mc14500_sram_in\[7\]
*500 qcpu_do\[0\]
*501 qcpu_do\[10\]
*502 qcpu_do\[11\]
*503 qcpu_do\[12\]
*504 qcpu_do\[13\]
*505 qcpu_do\[14\]
*506 qcpu_do\[15\]
*507 qcpu_do\[16\]
*508 qcpu_do\[17\]
*509 qcpu_do\[18\]
*510 qcpu_do\[19\]
*511 qcpu_do\[1\]
*512 qcpu_do\[20\]
*513 qcpu_do\[21\]
*514 qcpu_do\[22\]
*515 qcpu_do\[23\]
*516 qcpu_do\[24\]
*517 qcpu_do\[25\]
*518 qcpu_do\[26\]
*519 qcpu_do\[27\]
*520 qcpu_do\[28\]
*521 qcpu_do\[29\]
*522 qcpu_do\[2\]
*523 qcpu_do\[30\]
*524 qcpu_do\[31\]
*525 qcpu_do\[32\]
*526 qcpu_do\[3\]
*527 qcpu_do\[4\]
*528 qcpu_do\[5\]
*529 qcpu_do\[6\]
*530 qcpu_do\[7\]
*531 qcpu_do\[8\]
*532 qcpu_do\[9\]
*533 qcpu_oeb\[0\]
*534 qcpu_oeb\[10\]
*535 qcpu_oeb\[11\]
*536 qcpu_oeb\[12\]
*537 qcpu_oeb\[13\]
*538 qcpu_oeb\[14\]
*539 qcpu_oeb\[15\]
*540 qcpu_oeb\[16\]
*541 qcpu_oeb\[17\]
*542 qcpu_oeb\[18\]
*543 qcpu_oeb\[19\]
*544 qcpu_oeb\[1\]
*545 qcpu_oeb\[20\]
*546 qcpu_oeb\[21\]
*547 qcpu_oeb\[22\]
*548 qcpu_oeb\[23\]
*549 qcpu_oeb\[24\]
*550 qcpu_oeb\[25\]
*551 qcpu_oeb\[26\]
*552 qcpu_oeb\[27\]
*553 qcpu_oeb\[28\]
*554 qcpu_oeb\[29\]
*555 qcpu_oeb\[2\]
*556 qcpu_oeb\[30\]
*557 qcpu_oeb\[31\]
*558 qcpu_oeb\[32\]
*559 qcpu_oeb\[3\]
*560 qcpu_oeb\[4\]
*561 qcpu_oeb\[5\]
*562 qcpu_oeb\[6\]
*563 qcpu_oeb\[7\]
*564 qcpu_oeb\[8\]
*565 qcpu_oeb\[9\]
*566 qcpu_sram_addr\[0\]
*567 qcpu_sram_addr\[1\]
*568 qcpu_sram_addr\[2\]
*569 qcpu_sram_addr\[3\]
*570 qcpu_sram_addr\[4\]
*571 qcpu_sram_addr\[5\]
*572 qcpu_sram_gwe
*573 qcpu_sram_in\[0\]
*574 qcpu_sram_in\[1\]
*575 qcpu_sram_in\[2\]
*576 qcpu_sram_in\[3\]
*577 qcpu_sram_in\[4\]
*578 qcpu_sram_in\[5\]
*579 qcpu_sram_in\[6\]
*580 qcpu_sram_in\[7\]
*581 qcpu_sram_out\[0\]
*582 qcpu_sram_out\[1\]
*583 qcpu_sram_out\[2\]
*584 qcpu_sram_out\[3\]
*585 qcpu_sram_out\[4\]
*586 qcpu_sram_out\[5\]
*587 qcpu_sram_out\[6\]
*588 qcpu_sram_out\[7\]
*589 rst_blinker
*590 rst_mc14500
*591 rst_qcpu
*592 rst_sid
*593 rst_sn76489
*594 sid_do\[0\]
*595 sid_do\[10\]
*596 sid_do\[11\]
*597 sid_do\[12\]
*598 sid_do\[13\]
*599 sid_do\[14\]
*600 sid_do\[15\]
*601 sid_do\[16\]
*602 sid_do\[17\]
*603 sid_do\[18\]
*604 sid_do\[19\]
*605 sid_do\[1\]
*606 sid_do\[20\]
*607 sid_do\[2\]
*608 sid_do\[3\]
*609 sid_do\[4\]
*610 sid_do\[5\]
*611 sid_do\[6\]
*612 sid_do\[7\]
*613 sid_do\[8\]
*614 sid_do\[9\]
*615 sid_oeb
*616 sn76489_do\[0\]
*617 sn76489_do\[10\]
*618 sn76489_do\[11\]
*619 sn76489_do\[12\]
*620 sn76489_do\[13\]
*621 sn76489_do\[14\]
*622 sn76489_do\[15\]
*623 sn76489_do\[16\]
*624 sn76489_do\[17\]
*625 sn76489_do\[18\]
*626 sn76489_do\[19\]
*627 sn76489_do\[1\]
*628 sn76489_do\[20\]
*629 sn76489_do\[21\]
*630 sn76489_do\[22\]
*631 sn76489_do\[23\]
*632 sn76489_do\[24\]
*633 sn76489_do\[25\]
*634 sn76489_do\[26\]
*635 sn76489_do\[27\]
*636 sn76489_do\[2\]
*637 sn76489_do\[3\]
*638 sn76489_do\[4\]
*639 sn76489_do\[5\]
*640 sn76489_do\[6\]
*641 sn76489_do\[7\]
*642 sn76489_do\[8\]
*643 sn76489_do\[9\]
*644 avali_logo
*645 blinker
*646 mc14500
*647 multiplexer
*648 sid
*649 wrapped_qcpu
*650 wrapped_sn76489

*PORTS
io_in[0] I
io_in[10] I
io_in[11] I
io_in[12] I
io_in[13] I
io_in[14] I
io_in[15] I
io_in[16] I
io_in[17] I
io_in[18] I
io_in[19] I
io_in[1] I
io_in[20] I
io_in[21] I
io_in[22] I
io_in[23] I
io_in[24] I
io_in[25] I
io_in[26] I
io_in[27] I
io_in[28] I
io_in[29] I
io_in[2] I
io_in[30] I
io_in[31] I
io_in[32] I
io_in[33] I
io_in[34] I
io_in[35] I
io_in[36] I
io_in[37] I
io_in[3] I
io_in[4] I
io_in[5] I
io_in[6] I
io_in[7] I
io_in[8] I
io_in[9] I
io_oeb[0] O
io_oeb[10] O
io_oeb[11] O
io_oeb[12] O
io_oeb[13] O
io_oeb[14] O
io_oeb[15] O
io_oeb[16] O
io_oeb[17] O
io_oeb[18] O
io_oeb[19] O
io_oeb[1] O
io_oeb[20] O
io_oeb[21] O
io_oeb[22] O
io_oeb[23] O
io_oeb[24] O
io_oeb[25] O
io_oeb[26] O
io_oeb[27] O
io_oeb[28] O
io_oeb[29] O
io_oeb[2] O
io_oeb[30] O
io_oeb[31] O
io_oeb[32] O
io_oeb[33] O
io_oeb[34] O
io_oeb[35] O
io_oeb[36] O
io_oeb[37] O
io_oeb[3] O
io_oeb[4] O
io_oeb[5] O
io_oeb[6] O
io_oeb[7] O
io_oeb[8] O
io_oeb[9] O
io_out[0] O
io_out[10] O
io_out[11] O
io_out[12] O
io_out[13] O
io_out[14] O
io_out[15] O
io_out[16] O
io_out[17] O
io_out[18] O
io_out[19] O
io_out[1] O
io_out[20] O
io_out[21] O
io_out[22] O
io_out[23] O
io_out[24] O
io_out[25] O
io_out[26] O
io_out[27] O
io_out[28] O
io_out[29] O
io_out[2] O
io_out[30] O
io_out[31] O
io_out[32] O
io_out[33] O
io_out[34] O
io_out[35] O
io_out[36] O
io_out[37] O
io_out[3] O
io_out[4] O
io_out[5] O
io_out[6] O
io_out[7] O
io_out[8] O
io_out[9] O
la_data_in[0] I
la_data_in[10] I
la_data_in[11] I
la_data_in[12] I
la_data_in[13] I
la_data_in[14] I
la_data_in[15] I
la_data_in[16] I
la_data_in[17] I
la_data_in[18] I
la_data_in[19] I
la_data_in[1] I
la_data_in[20] I
la_data_in[21] I
la_data_in[22] I
la_data_in[23] I
la_data_in[24] I
la_data_in[25] I
la_data_in[26] I
la_data_in[27] I
la_data_in[28] I
la_data_in[29] I
la_data_in[2] I
la_data_in[30] I
la_data_in[31] I
la_data_in[32] I
la_data_in[33] I
la_data_in[34] I
la_data_in[35] I
la_data_in[36] I
la_data_in[37] I
la_data_in[38] I
la_data_in[39] I
la_data_in[3] I
la_data_in[40] I
la_data_in[41] I
la_data_in[42] I
la_data_in[43] I
la_data_in[44] I
la_data_in[45] I
la_data_in[46] I
la_data_in[47] I
la_data_in[48] I
la_data_in[49] I
la_data_in[4] I
la_data_in[50] I
la_data_in[51] I
la_data_in[52] I
la_data_in[53] I
la_data_in[54] I
la_data_in[55] I
la_data_in[56] I
la_data_in[57] I
la_data_in[58] I
la_data_in[59] I
la_data_in[5] I
la_data_in[60] I
la_data_in[61] I
la_data_in[62] I
la_data_in[63] I
la_data_in[6] I
la_data_in[7] I
la_data_in[8] I
la_data_in[9] I
la_data_out[0] O
la_data_out[10] O
la_data_out[11] O
la_data_out[12] O
la_data_out[13] O
la_data_out[14] O
la_data_out[15] O
la_data_out[16] O
la_data_out[17] O
la_data_out[18] O
la_data_out[19] O
la_data_out[1] O
la_data_out[20] O
la_data_out[21] O
la_data_out[22] O
la_data_out[23] O
la_data_out[24] O
la_data_out[25] O
la_data_out[26] O
la_data_out[27] O
la_data_out[28] O
la_data_out[29] O
la_data_out[2] O
la_data_out[30] O
la_data_out[31] O
la_data_out[32] O
la_data_out[33] O
la_data_out[34] O
la_data_out[35] O
la_data_out[36] O
la_data_out[37] O
la_data_out[38] O
la_data_out[39] O
la_data_out[3] O
la_data_out[40] O
la_data_out[41] O
la_data_out[42] O
la_data_out[43] O
la_data_out[44] O
la_data_out[45] O
la_data_out[46] O
la_data_out[47] O
la_data_out[48] O
la_data_out[49] O
la_data_out[4] O
la_data_out[50] O
la_data_out[51] O
la_data_out[52] O
la_data_out[53] O
la_data_out[54] O
la_data_out[55] O
la_data_out[56] O
la_data_out[57] O
la_data_out[58] O
la_data_out[59] O
la_data_out[5] O
la_data_out[60] O
la_data_out[61] O
la_data_out[62] O
la_data_out[63] O
la_data_out[6] O
la_data_out[7] O
la_data_out[8] O
la_data_out[9] O
la_oenb[0] I
la_oenb[10] I
la_oenb[11] I
la_oenb[12] I
la_oenb[13] I
la_oenb[14] I
la_oenb[15] I
la_oenb[16] I
la_oenb[17] I
la_oenb[18] I
la_oenb[19] I
la_oenb[1] I
la_oenb[20] I
la_oenb[21] I
la_oenb[22] I
la_oenb[23] I
la_oenb[24] I
la_oenb[25] I
la_oenb[26] I
la_oenb[27] I
la_oenb[28] I
la_oenb[29] I
la_oenb[2] I
la_oenb[30] I
la_oenb[31] I
la_oenb[32] I
la_oenb[33] I
la_oenb[34] I
la_oenb[35] I
la_oenb[36] I
la_oenb[37] I
la_oenb[38] I
la_oenb[39] I
la_oenb[3] I
la_oenb[40] I
la_oenb[41] I
la_oenb[42] I
la_oenb[43] I
la_oenb[44] I
la_oenb[45] I
la_oenb[46] I
la_oenb[47] I
la_oenb[48] I
la_oenb[49] I
la_oenb[4] I
la_oenb[50] I
la_oenb[51] I
la_oenb[52] I
la_oenb[53] I
la_oenb[54] I
la_oenb[55] I
la_oenb[56] I
la_oenb[57] I
la_oenb[58] I
la_oenb[59] I
la_oenb[5] I
la_oenb[60] I
la_oenb[61] I
la_oenb[62] I
la_oenb[63] I
la_oenb[6] I
la_oenb[7] I
la_oenb[8] I
la_oenb[9] I
user_clock2 I
user_irq[0] O
user_irq[1] O
user_irq[2] O
wb_clk_i I
wb_rst_i I
wbs_ack_o O
wbs_adr_i[0] I
wbs_adr_i[10] I
wbs_adr_i[11] I
wbs_adr_i[12] I
wbs_adr_i[13] I
wbs_adr_i[14] I
wbs_adr_i[15] I
wbs_adr_i[16] I
wbs_adr_i[17] I
wbs_adr_i[18] I
wbs_adr_i[19] I
wbs_adr_i[1] I
wbs_adr_i[20] I
wbs_adr_i[21] I
wbs_adr_i[22] I
wbs_adr_i[23] I
wbs_adr_i[24] I
wbs_adr_i[25] I
wbs_adr_i[26] I
wbs_adr_i[27] I
wbs_adr_i[28] I
wbs_adr_i[29] I
wbs_adr_i[2] I
wbs_adr_i[30] I
wbs_adr_i[31] I
wbs_adr_i[3] I
wbs_adr_i[4] I
wbs_adr_i[5] I
wbs_adr_i[6] I
wbs_adr_i[7] I
wbs_adr_i[8] I
wbs_adr_i[9] I
wbs_cyc_i I
wbs_dat_i[0] I
wbs_dat_i[10] I
wbs_dat_i[11] I
wbs_dat_i[12] I
wbs_dat_i[13] I
wbs_dat_i[14] I
wbs_dat_i[15] I
wbs_dat_i[16] I
wbs_dat_i[17] I
wbs_dat_i[18] I
wbs_dat_i[19] I
wbs_dat_i[1] I
wbs_dat_i[20] I
wbs_dat_i[21] I
wbs_dat_i[22] I
wbs_dat_i[23] I
wbs_dat_i[24] I
wbs_dat_i[25] I
wbs_dat_i[26] I
wbs_dat_i[27] I
wbs_dat_i[28] I
wbs_dat_i[29] I
wbs_dat_i[2] I
wbs_dat_i[30] I
wbs_dat_i[31] I
wbs_dat_i[3] I
wbs_dat_i[4] I
wbs_dat_i[5] I
wbs_dat_i[6] I
wbs_dat_i[7] I
wbs_dat_i[8] I
wbs_dat_i[9] I
wbs_dat_o[0] O
wbs_dat_o[10] O
wbs_dat_o[11] O
wbs_dat_o[12] O
wbs_dat_o[13] O
wbs_dat_o[14] O
wbs_dat_o[15] O
wbs_dat_o[16] O
wbs_dat_o[17] O
wbs_dat_o[18] O
wbs_dat_o[19] O
wbs_dat_o[1] O
wbs_dat_o[20] O
wbs_dat_o[21] O
wbs_dat_o[22] O
wbs_dat_o[23] O
wbs_dat_o[24] O
wbs_dat_o[25] O
wbs_dat_o[26] O
wbs_dat_o[27] O
wbs_dat_o[28] O
wbs_dat_o[29] O
wbs_dat_o[2] O
wbs_dat_o[30] O
wbs_dat_o[31] O
wbs_dat_o[3] O
wbs_dat_o[4] O
wbs_dat_o[5] O
wbs_dat_o[6] O
wbs_dat_o[7] O
wbs_dat_o[8] O
wbs_dat_o[9] O
wbs_sel_i[0] I
wbs_sel_i[1] I
wbs_sel_i[2] I
wbs_sel_i[3] I
wbs_stb_i I
wbs_we_i I

*D_NET *1 0.526177
*CONN
*P io_in[0] I
*I *647:io_in[0] I *D multiplexer
*CAP
1 io_in[0] 0.00519491
2 *647:io_in[0] 0.00103264
3 *1:13 0.00253103
4 *1:11 0.0014984
5 *1:9 0.0743592
6 *1:7 0.0795541
7 *647:io_in[0] *647:io_in[1] 0
8 *1:13 *9:15 0.00736214
9 *1:13 *11:27 0
10 *1:13 *12:13 0.000619368
11 *1:13 *23:13 0.177054
12 *1:13 *29:149 0.000551244
13 *1:13 *32:13 0.176419
*RES
1 io_in[0] *1:7 41.17 
2 *1:7 *1:9 506.084 
3 *1:9 *1:11 4.5 
4 *1:11 *1:13 431.3 
5 *1:13 *647:io_in[0] 10.01 
*END

*D_NET *2 0.656443
*CONN
*P io_in[10] I
*I *646:io_in[5] I *D wrapped_mc14500
*I *648:io_in[5] I *D wrapped_sid
*I *650:io_in_1[5] I *D wrapped_sn76489
*I *649:io_in[5] I *D wrapped_qcpu
*I *647:io_in[10] I *D multiplexer
*CAP
1 io_in[10] 0.014878
2 *646:io_in[5] 0.000626991
3 *648:io_in[5] 0.000964875
4 *650:io_in_1[5] 0.000143912
5 *649:io_in[5] 0.000429086
6 *647:io_in[10] 0.000865717
7 *2:79 0.0170013
8 *2:77 0.0160364
9 *2:75 0.00374456
10 *2:73 0.00374456
11 *2:63 0.0068878
12 *2:61 0.00674389
13 *2:59 0.00678142
14 *2:57 0.00698916
15 *2:45 0.0107322
16 *2:43 0.0100953
17 *2:41 0.00452075
18 *2:39 0.00703318
19 *2:27 0.0196009
20 *2:25 0.0164614
21 *2:15 0.0229052
22 *2:13 0.0271641
23 *2:5 0.0200027
24 *647:io_in[10] *647:io_in[11] 0
25 *647:io_in[10] *647:io_in[9] 0
26 *648:io_in[5] *648:io_in[6] 0.00791751
27 *648:io_in[5] *648:io_in[7] 0.00785811
28 *648:io_in[5] *326:13 0
29 *2:5 *8:9 3.46377e-05
30 *2:13 *3:21 0.000372003
31 *2:13 *3:23 8.15645e-05
32 *2:13 *3:35 2.23598e-06
33 *2:13 *4:13 0
34 *2:15 *647:blinker_do[2] 8.61264e-05
35 *2:15 *647:io_in[22] 0.000486275
36 *2:15 *647:io_in[26] 0.000460138
37 *2:15 *3:23 0.142656
38 *2:15 *4:15 0
39 *2:15 *5:25 0.000276978
40 *2:15 *8:19 0.0147452
41 *2:15 *9:55 0.000710119
42 *2:15 *11:27 0.0061081
43 *2:15 *12:13 5.62195e-05
44 *2:15 *16:25 4.08125e-05
45 *2:15 *30:53 0.000522871
46 *2:15 *589:11 0.000175161
47 *2:15 *593:11 0.00313976
48 *2:27 *3:35 0.0854181
49 *2:27 *37:11 0
50 *2:27 *38:31 0.000459022
51 *2:27 *38:35 2.17451e-05
52 *2:27 *590:17 0.00128897
53 *2:39 *646:io_in[4] 0
54 *2:39 *3:51 0.0106044
55 *2:39 *38:35 0.000416017
56 *2:41 *646:clk_i 6.7497e-05
57 *2:41 *646:sram_out[7] 0.000378863
58 *2:41 *35:23 0.000237049
59 *2:41 *488:11 0
60 *2:41 *489:11 0
61 *2:41 *494:15 0
62 *2:41 *581:13 0.000436984
63 *2:41 *588:13 0.0215308
64 *2:45 *488:13 0.000638405
65 *2:57 *4:63 0.0102792
66 *2:57 *19:47 0.00132286
67 *2:57 *35:41 0.00752827
68 *2:59 *37:54 0.0338384
69 *2:59 *439:9 0.00092309
70 *2:75 *3:89 0.0194293
71 *2:79 *648:io_in[0] 0.000491582
72 *2:79 *3:93 0
73 *2:79 *37:74 0.0150921
74 *2:79 *313:61 0.000835716
75 *2:79 *313:75 0.0351212
*RES
1 io_in[10] *2:5 105.07 
2 *2:5 *2:13 43.504 
3 *2:13 *2:15 346.636 
4 *2:15 *647:io_in[10] 8.794 
5 *2:13 *2:25 4.5 
6 *2:25 *2:27 215.916 
7 *2:27 *2:39 44.128 
8 *2:39 *2:41 58.444 
9 *2:41 *2:43 4.5 
10 *2:43 *2:45 64.372 
11 *2:45 *649:io_in[5] 2.47 
12 *2:45 *2:57 34.156 
13 *2:57 *2:59 86.26 
14 *2:59 *2:61 4.5 
15 *2:61 *2:63 46.588 
16 *2:63 *650:io_in_1[5] 0.722 
17 *2:63 *2:73 4.5 
18 *2:73 *2:75 49.172 
19 *2:75 *2:77 4.5 
20 *2:77 *2:79 199.804 
21 *2:79 *648:io_in[5] 34.194 
22 *2:27 *646:io_in[5] 8.034 
*END

*D_NET *3 0.782155
*CONN
*P io_in[11] I
*I *648:io_in[6] I *D wrapped_sid
*I *650:io_in_1[6] I *D wrapped_sn76489
*I *649:io_in[6] I *D wrapped_qcpu
*I *646:io_in[6] I *D wrapped_mc14500
*I *647:io_in[11] I *D multiplexer
*CAP
1 io_in[11] 0.00194205
2 *648:io_in[6] 0.00222916
3 *650:io_in_1[6] 0.000169856
4 *649:io_in[6] 0.000414376
5 *646:io_in[6] 0.000215292
6 *647:io_in[11] 0.000905222
7 *3:93 0.00377536
8 *3:91 0.0015462
9 *3:89 0.000752808
10 *3:87 0.000752808
11 *3:77 0.00361247
12 *3:73 0.014963
13 *3:71 0.0115204
14 *3:69 0.000452497
15 *3:67 0.000452497
16 *3:57 0.00996174
17 *3:55 0.00954737
18 *3:53 0.00374096
19 *3:51 0.00499583
20 *3:39 0.00182991
21 *3:35 0.000994421
22 *3:33 0.000634677
23 *3:23 0.0132544
24 *3:21 0.0126277
25 *3:17 0.0123671
26 *3:15 0.0120885
27 *3:13 0.013478
28 *3:11 0.0154201
29 *647:io_in[11] *647:io_in[12] 0
30 *648:io_in[6] *648:io_in[7] 0.000770532
31 *648:io_in[6] *326:13 0.00075776
32 *3:11 *6:13 0
33 *3:21 *4:13 0
34 *3:21 *12:13 0.000265595
35 *3:23 *5:25 0.0149795
36 *3:23 *12:13 0.0285924
37 *3:35 *4:27 0.083522
38 *3:35 *38:31 0.000710473
39 *3:35 *590:17 0.000589324
40 *3:51 *646:SDI 0.0124485
41 *3:53 *9:63 0.00443608
42 *3:53 *511:9 0.0209895
43 *3:69 *4:63 0.0187394
44 *3:69 *11:73 0.0205546
45 *3:69 *19:47 0.000405147
46 *3:73 *432:9 0.00447877
47 *3:89 *4:79 0.0230414
48 *3:93 *648:io_in[0] 0.00616763
49 *3:93 *4:83 0.0820106
50 *3:93 *34:83 2.47642e-05
51 *3:93 *37:74 0.037545
52 *647:io_in[10] *647:io_in[11] 0
53 *648:io_in[5] *648:io_in[6] 0.00791751
54 *2:13 *3:21 0.000372003
55 *2:13 *3:23 8.15645e-05
56 *2:13 *3:35 2.23598e-06
57 *2:15 *3:23 0.142656
58 *2:27 *3:35 0.0854181
59 *2:39 *3:51 0.0106044
60 *2:75 *3:89 0.0194293
61 *2:79 *3:93 0
*RES
1 io_in[11] *3:11 21.882 
2 *3:11 *3:13 95.38 
3 *3:13 *3:15 4.5 
4 *3:15 *3:17 81.7 
5 *3:17 *3:21 7.768 
6 *3:21 *3:23 345.268 
7 *3:23 *647:io_in[11] 8.946 
8 *3:21 *3:33 4.5 
9 *3:33 *3:35 212.42 
10 *3:35 *3:39 6.856 
11 *3:39 *646:io_in[6] 1.406 
12 *3:39 *3:51 45.556 
13 *3:51 *3:53 56.164 
14 *3:53 *3:55 4.5 
15 *3:55 *3:57 60.268 
16 *3:57 *649:io_in[6] 2.546 
17 *3:57 *3:67 4.5 
18 *3:67 *3:69 50.236 
19 *3:69 *3:71 4.5 
20 *3:71 *3:73 76.836 
21 *3:73 *3:77 28.288 
22 *3:77 *650:io_in_1[6] 0.874 
23 *3:77 *3:87 4.5 
24 *3:87 *3:89 57.228 
25 *3:89 *3:91 4.5 
26 *3:91 *3:93 199.5 
27 *3:93 *648:io_in[6] 37.234 
*END

*D_NET *4 0.666461
*CONN
*P io_in[12] I
*I *650:io_in_1[7] I *D wrapped_sn76489
*I *648:io_in[7] I *D wrapped_sid
*I *649:io_in[7] I *D wrapped_qcpu
*I *646:io_in[7] I *D wrapped_mc14500
*I *647:io_in[12] I *D multiplexer
*CAP
1 io_in[12] 0.0142462
2 *650:io_in_1[7] 0.000108346
3 *648:io_in[7] 0.00309346
4 *649:io_in[7] 0.00050184
5 *646:io_in[7] 0.00679295
6 *647:io_in[12] 0.000646691
7 *4:83 0.0179043
8 *4:81 0.0148108
9 *4:79 0.0055765
10 *4:77 0.00562917
11 *4:71 0.00287281
12 *4:67 0.0129052
13 *4:65 0.0101934
14 *4:63 0.000526411
15 *4:61 0.000526411
16 *4:51 0.00969554
17 *4:49 0.0091937
18 *4:47 0.00380568
19 *4:45 0.00380568
20 *4:43 0.0062129
21 *4:27 0.00248216
22 *4:25 0.00190211
23 *4:15 0.0416066
24 *4:13 0.0416996
25 *4:9 0.0216585
26 *4:7 0.0209189
27 *4:5 0.0142462
28 *647:io_in[12] *647:io_in[13] 0
29 *648:io_in[7] *326:13 0
30 *649:io_in[7] *649:io_in[8] 0
31 *4:13 *308:9 0
32 *4:15 *647:blinker_do[2] 0.000140531
33 *4:15 *647:io_in[16] 0.00046813
34 *4:15 *647:io_in[30] 0.00359384
35 *4:15 *647:mc14500_sram_in[7] 0.00892025
36 *4:15 *6:37 0.00893949
37 *4:15 *6:41 0.00085135
38 *4:15 *9:25 0.00315651
39 *4:15 *9:55 6.59508e-05
40 *4:15 *20:21 0
41 *4:15 *30:53 0.0149471
42 *4:15 *308:9 0
43 *4:15 *589:11 0.0148478
44 *4:27 *38:31 0.075699
45 *4:27 *590:17 0.000450298
46 *4:43 *646:sram_out[7] 7.86312e-05
47 *4:43 *588:17 0
48 *4:47 *506:9 0.0213501
49 *4:51 *649:io_in[8] 0
50 *4:63 *11:73 0.000469293
51 *4:63 *19:47 0.00258022
52 *4:63 *35:41 0.000951221
53 *4:67 *434:9 0.00409572
54 *4:71 *649:custom_settings[15] 0.00455657
55 *4:83 *648:io_in[0] 5.43087e-05
56 *4:83 *34:83 0.000374281
57 *4:83 *34:91 8.75318e-05
58 *647:io_in[11] *647:io_in[12] 0
59 *648:io_in[5] *648:io_in[7] 0.00785811
60 *648:io_in[6] *648:io_in[7] 0.000770532
61 *2:13 *4:13 0
62 *2:15 *4:15 0
63 *2:57 *4:63 0.0102792
64 *3:21 *4:13 0
65 *3:35 *4:27 0.083522
66 *3:69 *4:63 0.0187394
67 *3:89 *4:79 0.0230414
68 *3:93 *4:83 0.0820106
*RES
1 io_in[12] *4:5 100.51 
2 *4:5 *4:7 4.5 
3 *4:7 *4:9 142.044 
4 *4:9 *4:13 9.896 
5 *4:13 *4:15 343.9 
6 *4:15 *647:io_in[12] 7.73 
7 *4:13 *4:25 4.5 
8 *4:25 *4:27 207.556 
9 *4:27 *646:io_in[7] 8.338 
10 *646:io_in[7] *4:43 46.87 
11 *4:43 *4:45 4.5 
12 *4:45 *4:47 51.756 
13 *4:47 *4:49 4.5 
14 *4:49 *4:51 57.988 
15 *4:51 *649:io_in[7] 3.154 
16 *4:51 *4:61 4.5 
17 *4:61 *4:63 47.956 
18 *4:63 *4:65 4.5 
19 *4:65 *4:67 67.868 
20 *4:67 *4:71 33.152 
21 *4:71 *4:77 4.956 
22 *4:77 *4:79 66.044 
23 *4:79 *4:81 4.5 
24 *4:81 *4:83 199.652 
25 *4:83 *648:io_in[7] 40.73 
26 *4:71 *650:io_in_1[7] 0.798 
*END

*D_NET *5 0.82514
*CONN
*P io_in[13] I
*I *647:io_in[13] I *D multiplexer
*I *648:io_in[8] I *D wrapped_sid
*I *649:io_in[8] I *D wrapped_qcpu
*CAP
1 io_in[13] 0.0226516
2 *647:io_in[13] 0.000736413
3 *648:io_in[8] 0.000178708
4 *649:io_in[8] 0.047613
5 *5:43 0.0136198
6 *5:41 0.0157984
7 *5:35 0.0133731
8 *5:33 0.0129317
9 *5:29 0.00315093
10 *5:25 0.00364762
11 *5:23 0.00320729
12 *5:9 0.0762243
13 *5:7 0.0285529
14 *5:5 0.0226516
15 *647:io_in[13] *647:io_in[14] 0
16 *649:io_in[8] *493:13 0
17 *5:25 *6:41 0.000330282
18 *5:25 *8:19 0.141226
19 *5:25 *9:15 0.125397
20 *5:25 *11:27 0.00015407
21 *5:25 *12:13 0.00115641
22 *5:25 *32:13 0.00106564
23 *5:29 *6:41 0.000400984
24 *5:29 *6:45 0.00076542
25 *5:29 *19:23 0.000108218
26 *5:33 *6:45 0.0133532
27 *5:33 *11:27 0.000160191
28 *5:33 *15:23 0.000872411
29 *5:33 *16:25 0.00100733
30 *5:33 *19:23 0.00132152
31 *5:35 *7:23 0.0915251
32 *5:35 *9:27 1.45384e-05
33 *5:35 *11:29 0.00186369
34 *5:35 *76:9 0
35 *5:35 *472:13 0.0625652
36 *5:41 *381:13 0.0130325
37 *5:41 *610:23 0
38 *5:43 *647:wbs_adr_i[24] 0.000720719
39 *5:43 *6:55 0.0731084
40 *5:43 *28:31 0.000472618
41 *5:43 *29:121 0.000810545
42 *5:43 *347:13 0.0062199
43 *5:43 *594:6 0.00789333
44 *647:io_in[12] *647:io_in[13] 0
45 *649:io_in[7] *649:io_in[8] 0
46 *2:15 *5:25 0.000276978
47 *3:23 *5:25 0.0149795
48 *4:51 *649:io_in[8] 0
*RES
1 io_in[13] *5:5 161.006 
2 *5:5 *5:7 4.5 
3 *5:7 *5:9 194.484 
4 *5:9 *649:io_in[8] 311.334 
5 *5:9 *5:23 13.7361 
6 *5:23 *5:25 119.336 
7 *5:25 *5:29 1.43182 
8 *5:29 *5:33 15.6227 
9 *5:33 *5:35 225.419 
10 *5:35 *5:41 40.692 
11 *5:41 *5:43 184.452 
12 *5:43 *648:io_in[8] 5.298 
13 *5:29 *647:io_in[13] 17.0367 
*END

*D_NET *6 0.758188
*CONN
*P io_in[14] I
*I *647:io_in[14] I *D multiplexer
*I *648:io_in[9] I *D wrapped_sid
*I *649:io_in[9] I *D wrapped_qcpu
*CAP
1 io_in[14] 0.00124957
2 *647:io_in[14] 0.000673472
3 *648:io_in[9] 9.21708e-05
4 *649:io_in[9] 0.0355686
5 *6:55 0.000378957
6 *6:53 0.00282471
7 *6:47 0.0192616
8 *6:45 0.0174404
9 *6:41 0.00283922
10 *6:37 0.0188528
11 *6:35 0.0174368
12 *6:21 0.0392566
13 *6:17 0.0169301
14 *6:15 0.013209
15 *6:13 0.0213478
16 *6:11 0.0213478
17 *6:9 0.0234031
18 *6:7 0.0246527
19 *647:io_in[14] *647:io_in[15] 0
20 *649:io_in[9] *493:13 0.0199737
21 *6:9 *41:17 0.00330022
22 *6:17 *111:13 0
23 *6:21 *111:13 0
24 *6:21 *493:13 0
25 *6:21 *494:17 0
26 *6:37 *647:blinker_do[2] 0.00115147
27 *6:37 *8:19 0.13742
28 *6:37 *30:53 0.000250984
29 *6:37 *310:15 0
30 *6:37 *589:11 0.00122126
31 *6:37 *593:11 0.00120989
32 *6:41 *647:io_in[22] 0.000133349
33 *6:41 *647:io_in[26] 0.000363156
34 *6:41 *7:17 0.0031363
35 *6:41 *7:21 0.00076542
36 *6:41 *8:19 0.00110786
37 *6:41 *16:25 0.000142682
38 *6:41 *30:53 0.000545859
39 *6:45 *7:21 0.0141863
40 *6:45 *9:25 0.00107884
41 *6:45 *11:27 0.000499373
42 *6:45 *30:53 0.000937108
43 *6:47 *10:31 0.000525729
44 *6:47 *20:25 0
45 *6:47 *31:43 0
46 *6:47 *45:9 0.0186312
47 *6:47 *48:9 0.000979378
48 *6:47 *50:9 0.0168046