*SPEF "ieee 1481-1999"
*DESIGN "user_project_wrapper"
*DATE "11:11:11 Fri 11 11, 1111"
*VENDOR "OpenRCX"
*PROGRAM "Parallel Extraction"
*VERSION "1.0"
*DESIGN_FLOW "NAME_SCOPE LOCAL" "PIN_CAP NONE"
*DIVIDER /
*DELIMITER :
*BUS_DELIMITER []
*T_UNIT 1 NS
*C_UNIT 1 PF
*R_UNIT 1 OHM
*L_UNIT 1 HENRY

*NAME_MAP
*1 io_in[0]
*2 io_in[10]
*3 io_in[11]
*4 io_in[12]
*5 io_in[13]
*6 io_in[14]
*7 io_in[15]
*8 io_in[16]
*9 io_in[17]
*10 io_in[18]
*11 io_in[19]
*12 io_in[1]
*13 io_in[20]
*14 io_in[21]
*15 io_in[22]
*16 io_in[23]
*17 io_in[24]
*18 io_in[25]
*19 io_in[26]
*20 io_in[27]
*21 io_in[28]
*22 io_in[29]
*23 io_in[2]
*24 io_in[30]
*25 io_in[31]
*26 io_in[32]
*27 io_in[33]
*28 io_in[34]
*29 io_in[35]
*30 io_in[36]
*31 io_in[37]
*32 io_in[3]
*33 io_in[4]
*34 io_in[5]
*35 io_in[6]
*36 io_in[7]
*37 io_in[8]
*38 io_in[9]
*39 io_oeb[0]
*40 io_oeb[10]
*41 io_oeb[11]
*42 io_oeb[12]
*43 io_oeb[13]
*44 io_oeb[14]
*45 io_oeb[15]
*46 io_oeb[16]
*47 io_oeb[17]
*48 io_oeb[18]
*49 io_oeb[19]
*50 io_oeb[1]
*51 io_oeb[20]
*52 io_oeb[21]
*53 io_oeb[22]
*54 io_oeb[23]
*55 io_oeb[24]
*56 io_oeb[25]
*57 io_oeb[26]
*58 io_oeb[27]
*59 io_oeb[28]
*60 io_oeb[29]
*61 io_oeb[2]
*62 io_oeb[30]
*63 io_oeb[31]
*64 io_oeb[32]
*65 io_oeb[33]
*66 io_oeb[34]
*67 io_oeb[35]
*68 io_oeb[36]
*69 io_oeb[37]
*70 io_oeb[3]
*71 io_oeb[4]
*72 io_oeb[5]
*73 io_oeb[6]
*74 io_oeb[7]
*75 io_oeb[8]
*76 io_oeb[9]
*77 io_out[0]
*78 io_out[10]
*79 io_out[11]
*80 io_out[12]
*81 io_out[13]
*82 io_out[14]
*83 io_out[15]
*84 io_out[16]
*85 io_out[17]
*86 io_out[18]
*87 io_out[19]
*88 io_out[1]
*89 io_out[20]
*90 io_out[21]
*91 io_out[22]
*92 io_out[23]
*93 io_out[24]
*94 io_out[25]
*95 io_out[26]
*96 io_out[27]
*97 io_out[28]
*98 io_out[29]
*99 io_out[2]
*100 io_out[30]
*101 io_out[31]
*102 io_out[32]
*103 io_out[33]
*104 io_out[34]
*105 io_out[35]
*106 io_out[36]
*107 io_out[37]
*108 io_out[3]
*109 io_out[4]
*110 io_out[5]
*111 io_out[6]
*112 io_out[7]
*113 io_out[8]
*114 io_out[9]
*115 la_data_in[0]
*116 la_data_in[10]
*117 la_data_in[11]
*118 la_data_in[12]
*119 la_data_in[13]
*120 la_data_in[14]
*121 la_data_in[15]
*122 la_data_in[16]
*123 la_data_in[17]
*124 la_data_in[18]
*125 la_data_in[19]
*126 la_data_in[1]
*127 la_data_in[20]
*128 la_data_in[21]
*129 la_data_in[22]
*130 la_data_in[23]
*131 la_data_in[24]
*132 la_data_in[25]
*133 la_data_in[26]
*134 la_data_in[27]
*135 la_data_in[28]
*136 la_data_in[29]
*137 la_data_in[2]
*138 la_data_in[30]
*139 la_data_in[31]
*140 la_data_in[32]
*141 la_data_in[33]
*142 la_data_in[34]
*143 la_data_in[35]
*144 la_data_in[36]
*145 la_data_in[37]
*146 la_data_in[38]
*147 la_data_in[39]
*148 la_data_in[3]
*149 la_data_in[40]
*150 la_data_in[41]
*151 la_data_in[42]
*152 la_data_in[43]
*153 la_data_in[44]
*154 la_data_in[45]
*155 la_data_in[46]
*156 la_data_in[47]
*157 la_data_in[48]
*158 la_data_in[49]
*159 la_data_in[4]
*160 la_data_in[50]
*161 la_data_in[51]
*162 la_data_in[52]
*163 la_data_in[53]
*164 la_data_in[54]
*165 la_data_in[55]
*166 la_data_in[56]
*167 la_data_in[57]
*168 la_data_in[58]
*169 la_data_in[59]
*170 la_data_in[5]
*171 la_data_in[60]
*172 la_data_in[61]
*173 la_data_in[62]
*174 la_data_in[63]
*175 la_data_in[6]
*176 la_data_in[7]
*177 la_data_in[8]
*178 la_data_in[9]
*179 la_data_out[0]
*180 la_data_out[10]
*181 la_data_out[11]
*182 la_data_out[12]
*183 la_data_out[13]
*184 la_data_out[14]
*185 la_data_out[15]
*186 la_data_out[16]
*187 la_data_out[17]
*188 la_data_out[18]
*189 la_data_out[19]
*190 la_data_out[1]
*191 la_data_out[20]
*192 la_data_out[21]
*193 la_data_out[22]
*194 la_data_out[23]
*195 la_data_out[24]
*196 la_data_out[25]
*197 la_data_out[26]
*198 la_data_out[27]
*199 la_data_out[28]
*200 la_data_out[29]
*201 la_data_out[2]
*202 la_data_out[30]
*203 la_data_out[31]
*204 la_data_out[32]
*205 la_data_out[33]
*206 la_data_out[34]
*207 la_data_out[35]
*208 la_data_out[36]
*209 la_data_out[37]
*210 la_data_out[38]
*211 la_data_out[39]
*212 la_data_out[3]
*213 la_data_out[40]
*214 la_data_out[41]
*215 la_data_out[42]
*216 la_data_out[43]
*217 la_data_out[44]
*218 la_data_out[45]
*219 la_data_out[46]
*220 la_data_out[47]
*221 la_data_out[48]
*222 la_data_out[49]
*223 la_data_out[4]
*224 la_data_out[50]
*225 la_data_out[51]
*226 la_data_out[52]
*227 la_data_out[53]
*228 la_data_out[54]
*229 la_data_out[55]
*230 la_data_out[56]
*231 la_data_out[57]
*232 la_data_out[58]
*233 la_data_out[59]
*234 la_data_out[5]
*235 la_data_out[60]
*236 la_data_out[61]
*237 la_data_out[62]
*238 la_data_out[63]
*239 la_data_out[6]
*240 la_data_out[7]
*241 la_data_out[8]
*242 la_data_out[9]
*243 la_oenb[0]
*244 la_oenb[10]
*245 la_oenb[11]
*246 la_oenb[12]
*247 la_oenb[13]
*248 la_oenb[14]
*249 la_oenb[15]
*250 la_oenb[16]
*251 la_oenb[17]
*252 la_oenb[18]
*253 la_oenb[19]
*254 la_oenb[1]
*255 la_oenb[20]
*256 la_oenb[21]
*257 la_oenb[22]
*258 la_oenb[23]
*259 la_oenb[24]
*260 la_oenb[25]
*261 la_oenb[26]
*262 la_oenb[27]
*263 la_oenb[28]
*264 la_oenb[29]
*265 la_oenb[2]
*266 la_oenb[30]
*267 la_oenb[31]
*268 la_oenb[32]
*269 la_oenb[33]
*270 la_oenb[34]
*271 la_oenb[35]
*272 la_oenb[36]
*273 la_oenb[37]
*274 la_oenb[38]
*275 la_oenb[39]
*276 la_oenb[3]
*277 la_oenb[40]
*278 la_oenb[41]
*279 la_oenb[42]
*280 la_oenb[43]
*281 la_oenb[44]
*282 la_oenb[45]
*283 la_oenb[46]
*284 la_oenb[47]
*285 la_oenb[48]
*286 la_oenb[49]
*287 la_oenb[4]
*288 la_oenb[50]
*289 la_oenb[51]
*290 la_oenb[52]
*291 la_oenb[53]
*292 la_oenb[54]
*293 la_oenb[55]
*294 la_oenb[56]
*295 la_oenb[57]
*296 la_oenb[58]
*297 la_oenb[59]
*298 la_oenb[5]
*299 la_oenb[60]
*300 la_oenb[61]
*301 la_oenb[62]
*302 la_oenb[63]
*303 la_oenb[6]
*304 la_oenb[7]
*305 la_oenb[8]
*306 la_oenb[9]
*307 user_clock2
*308 user_irq[0]
*309 user_irq[1]
*310 user_irq[2]
*313 wb_clk_i
*314 wb_rst_i
*315 wbs_ack_o
*316 wbs_adr_i[0]
*317 wbs_adr_i[10]
*318 wbs_adr_i[11]
*319 wbs_adr_i[12]
*320 wbs_adr_i[13]
*321 wbs_adr_i[14]
*322 wbs_adr_i[15]
*323 wbs_adr_i[16]
*324 wbs_adr_i[17]
*325 wbs_adr_i[18]
*326 wbs_adr_i[19]
*327 wbs_adr_i[1]
*328 wbs_adr_i[20]
*329 wbs_adr_i[21]
*330 wbs_adr_i[22]
*331 wbs_adr_i[23]
*332 wbs_adr_i[24]
*333 wbs_adr_i[25]
*334 wbs_adr_i[26]
*335 wbs_adr_i[27]
*336 wbs_adr_i[28]
*337 wbs_adr_i[29]
*338 wbs_adr_i[2]
*339 wbs_adr_i[30]
*340 wbs_adr_i[31]
*341 wbs_adr_i[3]
*342 wbs_adr_i[4]
*343 wbs_adr_i[5]
*344 wbs_adr_i[6]
*345 wbs_adr_i[7]
*346 wbs_adr_i[8]
*347 wbs_adr_i[9]
*348 wbs_cyc_i
*349 wbs_dat_i[0]
*350 wbs_dat_i[10]
*351 wbs_dat_i[11]
*352 wbs_dat_i[12]
*353 wbs_dat_i[13]
*354 wbs_dat_i[14]
*355 wbs_dat_i[15]
*356 wbs_dat_i[16]
*357 wbs_dat_i[17]
*358 wbs_dat_i[18]
*359 wbs_dat_i[19]
*360 wbs_dat_i[1]
*361 wbs_dat_i[20]
*362 wbs_dat_i[21]
*363 wbs_dat_i[22]
*364 wbs_dat_i[23]
*365 wbs_dat_i[24]
*366 wbs_dat_i[25]
*367 wbs_dat_i[26]
*368 wbs_dat_i[27]
*369 wbs_dat_i[28]
*370 wbs_dat_i[29]
*371 wbs_dat_i[2]
*372 wbs_dat_i[30]
*373 wbs_dat_i[31]
*374 wbs_dat_i[3]
*375 wbs_dat_i[4]
*376 wbs_dat_i[5]
*377 wbs_dat_i[6]
*378 wbs_dat_i[7]
*379 wbs_dat_i[8]
*380 wbs_dat_i[9]
*381 wbs_dat_o[0]
*382 wbs_dat_o[10]
*383 wbs_dat_o[11]
*384 wbs_dat_o[12]
*385 wbs_dat_o[13]
*386 wbs_dat_o[14]
*387 wbs_dat_o[15]
*388 wbs_dat_o[16]
*389 wbs_dat_o[17]
*390 wbs_dat_o[18]
*391 wbs_dat_o[19]
*392 wbs_dat_o[1]
*393 wbs_dat_o[20]
*394 wbs_dat_o[21]
*395 wbs_dat_o[22]
*396 wbs_dat_o[23]
*397 wbs_dat_o[24]
*398 wbs_dat_o[25]
*399 wbs_dat_o[26]
*400 wbs_dat_o[27]
*401 wbs_dat_o[28]
*402 wbs_dat_o[29]
*403 wbs_dat_o[2]
*404 wbs_dat_o[30]
*405 wbs_dat_o[31]
*406 wbs_dat_o[3]
*407 wbs_dat_o[4]
*408 wbs_dat_o[5]
*409 wbs_dat_o[6]
*410 wbs_dat_o[7]
*411 wbs_dat_o[8]
*412 wbs_dat_o[9]
*413 wbs_sel_i[0]
*414 wbs_sel_i[1]
*415 wbs_sel_i[2]
*416 wbs_sel_i[3]
*417 wbs_stb_i
*418 wbs_we_i
*419 blinker_do\[0\]
*420 blinker_do\[1\]
*421 blinker_do\[2\]
*422 custom_settings\[0\]
*423 custom_settings\[10\]
*424 custom_settings\[11\]
*425 custom_settings\[12\]
*426 custom_settings\[13\]
*427 custom_settings\[14\]
*428 custom_settings\[15\]
*429 custom_settings\[16\]
*430 custom_settings\[17\]
*431 custom_settings\[18\]
*432 custom_settings\[19\]
*433 custom_settings\[1\]
*434 custom_settings\[20\]
*435 custom_settings\[21\]
*436 custom_settings\[22\]
*437 custom_settings\[23\]
*438 custom_settings\[24\]
*439 custom_settings\[25\]
*440 custom_settings\[26\]
*441 custom_settings\[27\]
*442 custom_settings\[28\]
*443 custom_settings\[29\]
*444 custom_settings\[2\]
*445 custom_settings\[30\]
*446 custom_settings\[31\]
*447 custom_settings\[3\]
*448 custom_settings\[4\]
*449 custom_settings\[5\]
*450 custom_settings\[6\]
*451 custom_settings\[7\]
*452 custom_settings\[8\]
*453 custom_settings\[9\]
*454 qcpu_do\[0\]
*455 qcpu_do\[10\]
*456 qcpu_do\[11\]
*457 qcpu_do\[12\]
*458 qcpu_do\[13\]
*459 qcpu_do\[14\]
*460 qcpu_do\[15\]
*461 qcpu_do\[16\]
*462 qcpu_do\[17\]
*463 qcpu_do\[18\]
*464 qcpu_do\[19\]
*465 qcpu_do\[1\]
*466 qcpu_do\[20\]
*467 qcpu_do\[21\]
*468 qcpu_do\[22\]
*469 qcpu_do\[23\]
*470 qcpu_do\[24\]
*471 qcpu_do\[25\]
*472 qcpu_do\[26\]
*473 qcpu_do\[27\]
*474 qcpu_do\[28\]
*475 qcpu_do\[29\]
*476 qcpu_do\[2\]
*477 qcpu_do\[30\]
*478 qcpu_do\[31\]
*479 qcpu_do\[32\]
*480 qcpu_do\[3\]
*481 qcpu_do\[4\]
*482 qcpu_do\[5\]
*483 qcpu_do\[6\]
*484 qcpu_do\[7\]
*485 qcpu_do\[8\]
*486 qcpu_do\[9\]
*487 qcpu_oeb\[0\]
*488 qcpu_oeb\[10\]
*489 qcpu_oeb\[11\]
*490 qcpu_oeb\[12\]
*491 qcpu_oeb\[13\]
*492 qcpu_oeb\[14\]
*493 qcpu_oeb\[15\]
*494 qcpu_oeb\[16\]
*495 qcpu_oeb\[17\]
*496 qcpu_oeb\[18\]
*497 qcpu_oeb\[19\]
*498 qcpu_oeb\[1\]
*499 qcpu_oeb\[20\]
*500 qcpu_oeb\[21\]
*501 qcpu_oeb\[22\]
*502 qcpu_oeb\[23\]
*503 qcpu_oeb\[24\]
*504 qcpu_oeb\[25\]
*505 qcpu_oeb\[26\]
*506 qcpu_oeb\[27\]
*507 qcpu_oeb\[28\]
*508 qcpu_oeb\[29\]
*509 qcpu_oeb\[2\]
*510 qcpu_oeb\[30\]
*511 qcpu_oeb\[31\]
*512 qcpu_oeb\[32\]
*513 qcpu_oeb\[3\]
*514 qcpu_oeb\[4\]
*515 qcpu_oeb\[5\]
*516 qcpu_oeb\[6\]
*517 qcpu_oeb\[7\]
*518 qcpu_oeb\[8\]
*519 qcpu_oeb\[9\]
*520 qcpu_sram_addr\[0\]
*521 qcpu_sram_addr\[1\]
*522 qcpu_sram_addr\[2\]
*523 qcpu_sram_addr\[3\]
*524 qcpu_sram_addr\[4\]
*525 qcpu_sram_addr\[5\]
*526 qcpu_sram_gwe
*527 qcpu_sram_in\[0\]
*528 qcpu_sram_in\[1\]
*529 qcpu_sram_in\[2\]
*530 qcpu_sram_in\[3\]
*531 qcpu_sram_in\[4\]
*532 qcpu_sram_in\[5\]
*533 qcpu_sram_in\[6\]
*534 qcpu_sram_in\[7\]
*535 qcpu_sram_out\[0\]
*536 qcpu_sram_out\[1\]
*537 qcpu_sram_out\[2\]
*538 qcpu_sram_out\[3\]
*539 qcpu_sram_out\[4\]
*540 qcpu_sram_out\[5\]
*541 qcpu_sram_out\[6\]
*542 qcpu_sram_out\[7\]
*543 rst_blinker
*544 rst_qcpu
*545 rst_sid
*546 rst_sn76489
*547 sid_do\[0\]
*548 sid_do\[10\]
*549 sid_do\[11\]
*550 sid_do\[12\]
*551 sid_do\[13\]
*552 sid_do\[14\]
*553 sid_do\[15\]
*554 sid_do\[16\]
*555 sid_do\[17\]
*556 sid_do\[18\]
*557 sid_do\[19\]
*558 sid_do\[1\]
*559 sid_do\[20\]
*560 sid_do\[2\]
*561 sid_do\[3\]
*562 sid_do\[4\]
*563 sid_do\[5\]
*564 sid_do\[6\]
*565 sid_do\[7\]
*566 sid_do\[8\]
*567 sid_do\[9\]
*568 sid_oeb
*569 sn76489_do\[0\]
*570 sn76489_do\[10\]
*571 sn76489_do\[11\]
*572 sn76489_do\[12\]
*573 sn76489_do\[13\]
*574 sn76489_do\[14\]
*575 sn76489_do\[15\]
*576 sn76489_do\[16\]
*577 sn76489_do\[17\]
*578 sn76489_do\[18\]
*579 sn76489_do\[19\]
*580 sn76489_do\[1\]
*581 sn76489_do\[20\]
*582 sn76489_do\[21\]
*583 sn76489_do\[22\]
*584 sn76489_do\[23\]
*585 sn76489_do\[24\]
*586 sn76489_do\[25\]
*587 sn76489_do\[26\]
*588 sn76489_do\[27\]
*589 sn76489_do\[2\]
*590 sn76489_do\[3\]
*591 sn76489_do\[4\]
*592 sn76489_do\[5\]
*593 sn76489_do\[6\]
*594 sn76489_do\[7\]
*595 sn76489_do\[8\]
*596 sn76489_do\[9\]
*597 avali_logo
*598 blinker
*599 multiplexer
*600 sid
*601 wrapped_qcpu
*602 wrapped_sn76489

*PORTS
io_in[0] I
io_in[10] I
io_in[11] I
io_in[12] I
io_in[13] I
io_in[14] I
io_in[15] I
io_in[16] I
io_in[17] I
io_in[18] I
io_in[19] I
io_in[1] I
io_in[20] I
io_in[21] I
io_in[22] I
io_in[23] I
io_in[24] I
io_in[25] I
io_in[26] I
io_in[27] I
io_in[28] I
io_in[29] I
io_in[2] I
io_in[30] I
io_in[31] I
io_in[32] I
io_in[33] I
io_in[34] I
io_in[35] I
io_in[36] I
io_in[37] I
io_in[3] I
io_in[4] I
io_in[5] I
io_in[6] I
io_in[7] I
io_in[8] I
io_in[9] I
io_oeb[0] O
io_oeb[10] O
io_oeb[11] O
io_oeb[12] O
io_oeb[13] O
io_oeb[14] O
io_oeb[15] O
io_oeb[16] O
io_oeb[17] O
io_oeb[18] O
io_oeb[19] O
io_oeb[1] O
io_oeb[20] O
io_oeb[21] O
io_oeb[22] O
io_oeb[23] O
io_oeb[24] O
io_oeb[25] O
io_oeb[26] O
io_oeb[27] O
io_oeb[28] O
io_oeb[29] O
io_oeb[2] O
io_oeb[30] O
io_oeb[31] O
io_oeb[32] O
io_oeb[33] O
io_oeb[34] O
io_oeb[35] O
io_oeb[36] O
io_oeb[37] O
io_oeb[3] O
io_oeb[4] O
io_oeb[5] O
io_oeb[6] O
io_oeb[7] O
io_oeb[8] O
io_oeb[9] O
io_out[0] O
io_out[10] O
io_out[11] O
io_out[12] O
io_out[13] O
io_out[14] O
io_out[15] O
io_out[16] O
io_out[17] O
io_out[18] O
io_out[19] O
io_out[1] O
io_out[20] O
io_out[21] O
io_out[22] O
io_out[23] O
io_out[24] O
io_out[25] O
io_out[26] O
io_out[27] O
io_out[28] O
io_out[29] O
io_out[2] O
io_out[30] O
io_out[31] O
io_out[32] O
io_out[33] O
io_out[34] O
io_out[35] O
io_out[36] O
io_out[37] O
io_out[3] O
io_out[4] O
io_out[5] O
io_out[6] O
io_out[7] O
io_out[8] O
io_out[9] O
la_data_in[0] I
la_data_in[10] I
la_data_in[11] I
la_data_in[12] I
la_data_in[13] I
la_data_in[14] I
la_data_in[15] I
la_data_in[16] I
la_data_in[17] I
la_data_in[18] I
la_data_in[19] I
la_data_in[1] I
la_data_in[20] I
la_data_in[21] I
la_data_in[22] I
la_data_in[23] I
la_data_in[24] I
la_data_in[25] I
la_data_in[26] I
la_data_in[27] I
la_data_in[28] I
la_data_in[29] I
la_data_in[2] I
la_data_in[30] I
la_data_in[31] I
la_data_in[32] I
la_data_in[33] I
la_data_in[34] I
la_data_in[35] I
la_data_in[36] I
la_data_in[37] I
la_data_in[38] I
la_data_in[39] I
la_data_in[3] I
la_data_in[40] I
la_data_in[41] I
la_data_in[42] I
la_data_in[43] I
la_data_in[44] I
la_data_in[45] I
la_data_in[46] I
la_data_in[47] I
la_data_in[48] I
la_data_in[49] I
la_data_in[4] I
la_data_in[50] I
la_data_in[51] I
la_data_in[52] I
la_data_in[53] I
la_data_in[54] I
la_data_in[55] I
la_data_in[56] I
la_data_in[57] I
la_data_in[58] I
la_data_in[59] I
la_data_in[5] I
la_data_in[60] I
la_data_in[61] I
la_data_in[62] I
la_data_in[63] I
la_data_in[6] I
la_data_in[7] I
la_data_in[8] I
la_data_in[9] I
la_data_out[0] O
la_data_out[10] O
la_data_out[11] O
la_data_out[12] O
la_data_out[13] O
la_data_out[14] O
la_data_out[15] O
la_data_out[16] O
la_data_out[17] O
la_data_out[18] O
la_data_out[19] O
la_data_out[1] O
la_data_out[20] O
la_data_out[21] O
la_data_out[22] O
la_data_out[23] O
la_data_out[24] O
la_data_out[25] O
la_data_out[26] O
la_data_out[27] O
la_data_out[28] O
la_data_out[29] O
la_data_out[2] O
la_data_out[30] O
la_data_out[31] O
la_data_out[32] O
la_data_out[33] O
la_data_out[34] O
la_data_out[35] O
la_data_out[36] O
la_data_out[37] O
la_data_out[38] O
la_data_out[39] O
la_data_out[3] O
la_data_out[40] O
la_data_out[41] O
la_data_out[42] O
la_data_out[43] O
la_data_out[44] O
la_data_out[45] O
la_data_out[46] O
la_data_out[47] O
la_data_out[48] O
la_data_out[49] O
la_data_out[4] O
la_data_out[50] O
la_data_out[51] O
la_data_out[52] O
la_data_out[53] O
la_data_out[54] O
la_data_out[55] O
la_data_out[56] O
la_data_out[57] O
la_data_out[58] O
la_data_out[59] O
la_data_out[5] O
la_data_out[60] O
la_data_out[61] O
la_data_out[62] O
la_data_out[63] O
la_data_out[6] O
la_data_out[7] O
la_data_out[8] O
la_data_out[9] O
la_oenb[0] I
la_oenb[10] I
la_oenb[11] I
la_oenb[12] I
la_oenb[13] I
la_oenb[14] I
la_oenb[15] I
la_oenb[16] I
la_oenb[17] I
la_oenb[18] I
la_oenb[19] I
la_oenb[1] I
la_oenb[20] I
la_oenb[21] I
la_oenb[22] I
la_oenb[23] I
la_oenb[24] I
la_oenb[25] I
la_oenb[26] I
la_oenb[27] I
la_oenb[28] I
la_oenb[29] I
la_oenb[2] I
la_oenb[30] I
la_oenb[31] I
la_oenb[32] I
la_oenb[33] I
la_oenb[34] I
la_oenb[35] I
la_oenb[36] I
la_oenb[37] I
la_oenb[38] I
la_oenb[39] I
la_oenb[3] I
la_oenb[40] I
la_oenb[41] I
la_oenb[42] I
la_oenb[43] I
la_oenb[44] I
la_oenb[45] I
la_oenb[46] I
la_oenb[47] I
la_oenb[48] I
la_oenb[49] I
la_oenb[4] I
la_oenb[50] I
la_oenb[51] I
la_oenb[52] I
la_oenb[53] I
la_oenb[54] I
la_oenb[55] I
la_oenb[56] I
la_oenb[57] I
la_oenb[58] I
la_oenb[59] I
la_oenb[5] I
la_oenb[60] I
la_oenb[61] I
la_oenb[62] I
la_oenb[63] I
la_oenb[6] I
la_oenb[7] I
la_oenb[8] I
la_oenb[9] I
user_clock2 I
user_irq[0] O
user_irq[1] O
user_irq[2] O
wb_clk_i I
wb_rst_i I
wbs_ack_o O
wbs_adr_i[0] I
wbs_adr_i[10] I
wbs_adr_i[11] I
wbs_adr_i[12] I
wbs_adr_i[13] I
wbs_adr_i[14] I
wbs_adr_i[15] I
wbs_adr_i[16] I
wbs_adr_i[17] I
wbs_adr_i[18] I
wbs_adr_i[19] I
wbs_adr_i[1] I
wbs_adr_i[20] I
wbs_adr_i[21] I
wbs_adr_i[22] I
wbs_adr_i[23] I
wbs_adr_i[24] I
wbs_adr_i[25] I
wbs_adr_i[26] I
wbs_adr_i[27] I
wbs_adr_i[28] I
wbs_adr_i[29] I
wbs_adr_i[2] I
wbs_adr_i[30] I
wbs_adr_i[31] I
wbs_adr_i[3] I
wbs_adr_i[4] I
wbs_adr_i[5] I
wbs_adr_i[6] I
wbs_adr_i[7] I
wbs_adr_i[8] I
wbs_adr_i[9] I
wbs_cyc_i I
wbs_dat_i[0] I
wbs_dat_i[10] I
wbs_dat_i[11] I
wbs_dat_i[12] I
wbs_dat_i[13] I
wbs_dat_i[14] I
wbs_dat_i[15] I
wbs_dat_i[16] I
wbs_dat_i[17] I
wbs_dat_i[18] I
wbs_dat_i[19] I
wbs_dat_i[1] I
wbs_dat_i[20] I
wbs_dat_i[21] I
wbs_dat_i[22] I
wbs_dat_i[23] I
wbs_dat_i[24] I
wbs_dat_i[25] I
wbs_dat_i[26] I
wbs_dat_i[27] I
wbs_dat_i[28] I
wbs_dat_i[29] I
wbs_dat_i[2] I
wbs_dat_i[30] I
wbs_dat_i[31] I
wbs_dat_i[3] I
wbs_dat_i[4] I
wbs_dat_i[5] I
wbs_dat_i[6] I
wbs_dat_i[7] I
wbs_dat_i[8] I
wbs_dat_i[9] I
wbs_dat_o[0] O
wbs_dat_o[10] O
wbs_dat_o[11] O
wbs_dat_o[12] O
wbs_dat_o[13] O
wbs_dat_o[14] O
wbs_dat_o[15] O
wbs_dat_o[16] O
wbs_dat_o[17] O
wbs_dat_o[18] O
wbs_dat_o[19] O
wbs_dat_o[1] O
wbs_dat_o[20] O
wbs_dat_o[21] O
wbs_dat_o[22] O
wbs_dat_o[23] O
wbs_dat_o[24] O
wbs_dat_o[25] O
wbs_dat_o[26] O
wbs_dat_o[27] O
wbs_dat_o[28] O
wbs_dat_o[29] O
wbs_dat_o[2] O
wbs_dat_o[30] O
wbs_dat_o[31] O
wbs_dat_o[3] O
wbs_dat_o[4] O
wbs_dat_o[5] O
wbs_dat_o[6] O
wbs_dat_o[7] O
wbs_dat_o[8] O
wbs_dat_o[9] O
wbs_sel_i[0] I
wbs_sel_i[1] I
wbs_sel_i[2] I
wbs_sel_i[3] I
wbs_stb_i I
wbs_we_i I

*D_NET *1 0.513512
*CONN
*P io_in[0] I
*I *599:io_in[0] I *D multiplexer
*CAP
1 io_in[0] 0.00300013
2 *599:io_in[0] 0.000150061
3 *1:13 0.0027257
4 *1:11 0.00257564
5 *1:9 0.0694037
6 *1:7 0.0724038
7 *1:13 *12:13 0.184255
8 *1:13 *23:13 0.000351347
9 *1:13 *25:53 8.41027e-06
10 *1:13 *27:29 0.000219803
11 *1:13 *32:13 0.178081
12 *1:13 *103:9 0.000338013
*RES
1 io_in[0] *1:7 25.21 
2 *1:7 *1:9 474.164 
3 *1:9 *1:11 4.5 
4 *1:11 *1:13 448.476 
5 *1:13 *599:io_in[0] 5.298 
*END

*D_NET *2 0.517948
*CONN
*P io_in[10] I
*I *600:io_in[5] I *D wrapped_sid
*I *602:io_in_1[5] I *D wrapped_sn76489
*I *601:io_in[5] I *D wrapped_qcpu
*I *599:io_in[10] I *D multiplexer
*CAP
1 io_in[10] 0.0234915
2 *600:io_in[5] 0.000801276
3 *602:io_in_1[5] 8.78456e-05
4 *601:io_in[5] 0.000581487
5 *599:io_in[10] 0.00065039
6 *2:71 0.015729
7 *2:69 0.0184461
8 *2:65 0.00507433
9 *2:51 0.005919
10 *2:47 0.0105966
11 *2:45 0.00649785
12 *2:31 0.031932
13 *2:29 0.0311741
14 *2:19 0.0229863
15 *2:17 0.02575
16 *2:13 0.0035897
17 *2:9 0.00939241
18 *2:7 0.00921673
19 *2:5 0.0234915
20 *600:io_in[5] *388:17 0.000681058
21 *600:io_in[5] *402:17 0.00822357
22 *600:io_in[5] *405:25 0.00821643
23 *601:io_in[5] *601:io_in[4] 0.000183134
24 *2:9 *3:77 0
25 *2:9 *38:21 0
26 *2:13 *4:21 0
27 *2:17 *4:21 0
28 *2:19 *599:blinker_do[0] 0.00379674
29 *2:19 *599:blinker_do[2] 0.000733918
30 *2:19 *599:io_in[15] 0.000393606
31 *2:19 *599:io_in[20] 0.000225107
32 *2:19 *4:21 0.014151
33 *2:19 *8:57 0.0145163
34 *2:19 *9:13 0.000243133
35 *2:19 *9:59 0.00530383
36 *2:19 *13:23 0.000896743
37 *2:19 *21:21 0.0132866
38 *2:19 *25:53 0
39 *2:19 *101:11 0.0176078
40 *2:19 *543:11 0.00585188
41 *2:19 *546:13 7.95952e-05
42 *2:31 *601:io_in[4] 0.02449
43 *2:45 *3:37 0.0116366
44 *2:45 *5:45 0.0116366
45 *2:47 *37:37 0.0309679
46 *2:47 *443:17 0.000399629
47 *2:51 *601:custom_settings[11] 0.00481379
48 *2:69 *37:56 0.0122766
49 *2:71 *3:61 0
50 *2:71 *34:47 0
51 *2:71 *37:58 0.0819279
*RES
1 io_in[10] *2:5 166.63 
2 *2:5 *2:7 4.5 
3 *2:7 *2:9 62.092 
4 *2:9 *2:13 5.64 
5 *2:13 *2:17 23.484 
6 *2:17 *2:19 260.376 
7 *2:19 *599:io_in[10] 7.73 
8 *2:13 *2:29 4.5 
9 *2:29 *2:31 272.916 
10 *2:31 *601:io_in[5] 3.914 
11 *2:31 *2:45 37.5 
12 *2:45 *2:47 79.572 
13 *2:47 *2:51 46.68 
14 *2:51 *602:io_in_1[5] 0.57 
15 *2:51 *2:65 15.064 
16 *2:65 *2:69 43.412 
17 *2:69 *2:71 199.5 
18 *2:71 *600:io_in[5] 33.89 
*END

*D_NET *3 0.628682
*CONN
*P io_in[11] I
*I *599:io_in[11] I *D multiplexer
*I *600:io_in[6] I *D wrapped_sid
*I *602:io_in_1[6] I *D wrapped_sn76489
*I *601:io_in[6] I *D wrapped_qcpu
*CAP
1 io_in[11] 0.00178253
2 *599:io_in[11] 0.00083288
3 *600:io_in[6] 0.00337005
4 *602:io_in_1[6] 0.000452621
5 *601:io_in[6] 0.000562187
6 *3:79 0.00194976
7 *3:77 0.00135268
8 *3:67 0.00340457
9 *3:61 0.0204367
10 *3:59 0.0204022
11 *3:57 0.00141055
12 *3:55 0.00141055
13 *3:45 0.0046305
14 *3:41 0.0147465
15 *3:39 0.0105686
16 *3:37 0.0002901
17 *3:25 0.0422483
18 *3:23 0.0425883
19 *3:13 0.022187
20 *3:11 0.0212305
21 *3:9 0.0161899
22 *3:7 0.0179724
23 *3:23 *4:17 0.000920507
24 *3:23 *4:21 0
25 *3:23 *4:33 0.000188846
26 *3:23 *5:39 8.55327e-05
27 *3:37 *4:49 0.0173302
28 *3:37 *5:45 0.00281265
29 *3:41 *436:9 0.00332963
30 *3:45 *601:custom_settings[14] 0
31 *3:57 *4:69 0.0230998
32 *3:57 *38:63 0.0157363
33 *3:61 *601:wb_clk_i 0.0358962
34 *3:61 *36:69 0
35 *3:61 *37:58 0
36 *3:61 *313:53 0.00091424
37 *3:67 *599:wbs_dat_i[9] 0.00929287
38 *3:67 *356:13 0.00928573
39 *3:67 *359:13 0.000827411
40 *3:79 *4:21 0.116395
41 *3:79 *5:21 0.0144948
42 *3:79 *15:19 0.000259587
43 *3:79 *38:21 0.000188292
44 *3:79 *38:23 0.115969
45 *3:79 *88:9 0
46 *2:9 *3:77 0
47 *2:45 *3:37 0.0116366
48 *2:71 *3:61 0
*RES
1 io_in[11] *3:7 16.09 
2 *3:7 *3:9 110.276 
3 *3:9 *3:11 4.5 
4 *3:11 *3:13 151.772 
5 *3:13 *3:23 21.404 
6 *3:23 *3:25 273.068 
7 *3:25 *601:io_in[6] 3.306 
8 *3:25 *3:37 46.832 
9 *3:37 *3:39 4.5 
10 *3:39 *3:41 70.3 
11 *3:41 *3:45 32.848 
12 *3:45 *602:io_in_1[6] 3.154 
13 *3:45 *3:55 4.5 
14 *3:55 *3:57 57.228 
15 *3:57 *3:59 4.5 
16 *3:59 *3:61 185.972 
17 *3:61 *3:67 32.028 
18 *3:67 *600:io_in[6] 20.406 
19 *3:23 *3:77 5.944 
20 *3:77 *3:79 283.708 
21 *3:79 *599:io_in[11] 8.642 
*END

*D_NET *4 0.679173
*CONN
*P io_in[12] I
*I *600:io_in[7] I *D wrapped_sid
*I *602:io_in_1[7] I *D wrapped_sn76489
*I *601:io_in[7] I *D wrapped_qcpu
*I *599:io_in[12] I *D multiplexer
*CAP
1 io_in[12] 0.0212689
2 *600:io_in[7] 0.00369393
3 *602:io_in_1[7] 0.000482079
4 *601:io_in[7] 0.000488318
5 *599:io_in[12] 0.000811011
6 *4:73 0.0145904
7 *4:71 0.0108965
8 *4:69 0.00588719
9 *4:67 0.00588719
10 *4:57 0.000980989
11 *4:53 0.00964084
12 *4:51 0.00914193
13 *4:49 0.000929008
14 *4:47 0.000929008
15 *4:33 0.0218255
16 *4:31 0.0213739
17 *4:21 0.0113696
18 *4:19 0.0105586
19 *4:17 0.00113576
20 *4:9 0.0255124
21 *4:7 0.0244134
22 *4:5 0.0212689
23 *600:io_in[7] *599:wbs_adr_i[31] 0.0021495
24 *600:io_in[7] *599:wbs_dat_i[0] 0.00387546
25 *4:17 *38:13 0.00520643
26 *4:21 *599:blinker_do[2] 0.00119483
27 *4:21 *599:io_in[22] 0.000193185
28 *4:21 *599:io_in[23] 6.31406e-05
29 *4:21 *5:21 0.000295515
30 *4:21 *8:57 0.0108423
31 *4:21 *15:19 0.00356935
32 *4:21 *16:19 0.00019209
33 *4:21 *21:21 0.000778088
34 *4:21 *88:9 0
35 *4:21 *101:11 0.00426614
36 *4:21 *543:11 0.000716854
37 *4:33 *5:39 0.10907
38 *4:33 *5:43 0.000325508
39 *4:49 *601:io_in[8] 0
40 *4:49 *5:45 0.00374059
41 *4:49 *11:71 0.0285448
42 *4:53 *422:32 0.000495323
43 *4:53 *431:9 0.00471453
44 *4:69 *38:63 0.000599891
45 *4:73 *35:71 0
46 *4:73 *38:67 0.076523
47 *4:73 *368:9 0.000375072
48 *4:73 *420:6 0.0262706
49 *2:13 *4:21 0
50 *2:17 *4:21 0
51 *2:19 *4:21 0.014151
52 *3:23 *4:17 0.000920507
53 *3:23 *4:21 0
54 *3:23 *4:33 0.000188846
55 *3:37 *4:49 0.0173302
56 *3:57 *4:69 0.0230998
57 *3:79 *4:21 0.116395
*RES
1 io_in[12] *4:5 150.67 
2 *4:5 *4:7 4.5 
3 *4:7 *4:9 166.212 
4 *4:9 *4:17 23.896 
5 *4:17 *4:19 4.5 
6 *4:19 *4:21 284.164 
7 *4:21 *599:io_in[12] 8.49 
8 *4:17 *4:31 0.228 
9 *4:31 *4:33 274.436 
10 *4:33 *601:io_in[7] 3.154 
11 *4:33 *4:47 4.5 
12 *4:47 *4:49 69.844 
13 *4:49 *4:51 4.5 
14 *4:51 *4:53 61.028 
15 *4:53 *4:57 7.92 
16 *4:57 *602:io_in_1[7] 3.306 
17 *4:57 *4:67 4.5 
18 *4:67 *4:69 69.54 
19 *4:69 *4:71 4.5 
20 *4:71 *4:73 197.372 
21 *4:73 *600:io_in[7] 47.722 
*END

*D_NET *5 0.730844
*CONN
*P io_in[13] I
*I *601:io_in[8] I *D wrapped_qcpu
*I *600:io_in[8] I *D wrapped_sid
*I *599:io_in[13] I *D multiplexer
*CAP
1 io_in[13] 0.0226583
2 *601:io_in[8] 0.00083177
3 *600:io_in[8] 0.00335612
4 *599:io_in[13] 0.000855145
5 *5:49 0.00349974
6 *5:47 0.000143614
7 *5:45 0.0276921
8 *5:43 0.0277673
9 *5:39 0.0219937
10 *5:37 0.0210867
11 *5:21 0.00409472
12 *5:19 0.00348434
13 *5:13 0.000583869
14 *5:9 0.0331045
15 *5:7 0.0327654
16 *5:5 0.0226583
17 *601:io_in[8] *601:io_in[9] 0
18 *601:io_in[8] *11:71 0
19 *601:io_in[8] *27:65 0.000173578
20 *5:9 *6:17 0
21 *5:21 *599:io_in[15] 0.000422888
22 *5:21 *8:57 0.1402
23 *5:21 *9:37 0.123393
24 *5:21 *15:19 0.000215706
25 *5:21 *16:19 0.000202409
26 *5:21 *38:23 0.00046722
27 *5:45 *8:41 0.00535742
28 *5:45 *11:71 0.00875208
29 *5:45 *27:65 0
30 *5:49 *599:wbs_dat_i[9] 0.0393492
31 *5:49 *19:29 0.00223202
32 *5:49 *356:13 0.0393421
33 *5:49 *359:13 0.00169988
34 *2:45 *5:45 0.0116366
35 *3:23 *5:39 8.55327e-05
36 *3:37 *5:45 0.00281265
37 *3:79 *5:21 0.0144948
38 *4:21 *5:21 0.000295515
39 *4:33 *5:39 0.10907
40 *4:33 *5:43 0.000325508
41 *4:49 *601:io_in[8] 0
42 *4:49 *5:45 0.00374059
*RES
1 io_in[13] *5:5 161.006 
2 *5:5 *5:7 4.5 
3 *5:7 *5:9 223.364 
4 *5:9 *5:13 6.704 
5 *5:13 *5:19 10.1916 
6 *5:19 *5:21 118.223 
7 *5:21 *599:io_in[13] 17.6176 
8 *5:13 *5:37 4.5 
9 *5:37 *5:39 272.156 
10 *5:39 *5:43 5.336 
11 *5:43 *5:45 258.78 
12 *5:45 *5:47 4.5 
13 *5:47 *5:49 97.508 
14 *5:49 *600:io_in[8] 24.906 
15 *5:39 *601:io_in[8] 14.738 
*END

*D_NET *6 0.758147
*CONN
*P io_in[14] I
*I *599:io_in[14] I *D multiplexer
*I *600:io_in[9] I *D wrapped_sid
*I *601:io_in[9] I *D wrapped_qcpu
*CAP
1 io_in[14] 0.00125343
2 *599:io_in[14] 0.00282545
3 *600:io_in[9] 0.000808141
4 *601:io_in[9] 0.00182045
5 *6:51 0.0166998
6 *6:49 0.0148876
7 *6:43 0.00333808
8 *6:33 0.00383862
9 *6:31 0.00535532
10 *6:29 0.00847068
11 *6:27 0.00847068
12 *6:17 0.0434905
13 *6:15 0.0416701
14 *6:13 0.0114115
15 *6:11 0.0114115
16 *6:9 0.0390845
17 *6:7 0.040338
18 *599:io_in[14] *599:io_in[15] 0.0155877
19 *599:io_in[14] *13:23 0.000524752
20 *6:9 *44:17 0.0254441
21 *6:13 *80:9 0.0605697
22 *6:29 *7:37 0.11353
23 *6:29 *477:9 0.000255375
24 *6:29 *478:9 0.0665865
25 *6:29 *486:9 0.00349424
26 *6:29 *562:7 0
27 *6:33 *599:wbs_adr_i[29] 0.00143861
28 *6:33 *600:io_in[14] 0.00982134
29 *6:33 *600:io_in[27] 0.0120334
30 *6:33 *600:io_in[28] 0.0105116
31 *6:33 *7:41 0.00178789
32 *6:33 *26:31 0.00221928
33 *6:33 *27:47 0.000108044
34 *6:33 *27:51 0.00173217
35 *6:33 *388:17 0.000579272
36 *6:33 *405:25 0.0226903
37 *6:43 *26:31 0.0259944
38 *6:43 *27:45 0.000445208
39 *6:43 *27:47 0.00540762
40 *6:43 *549:11 0.000116832
41 *6:43 *550:11 0.00120897
42 *6:49 *13:31 0
43 *6:49 *28:21 0.0130084
44 *6:49 *548:19 3.29268e-05
45 *6:49 *551:13 0.000238659
46 *6:49 *556:17 0.013333
47 *6:51 *7:59 0.0603464
48 *6:51 *48:9 0.000101313
49 *6:51 *61:6 0.0262376
50 *6:51 *71:9 0.00758704
51 *6:51 *554:17 0
52 *601:io_in[8] *601:io_in[9] 0
53 *5:9 *6:17 0
*RES
1 io_in[14] *6:7 11.53 
2 *6:7 *6:9 266.988 
3 *6:9 *6:11 4.5 
4 *6:11 *6:13 152.836 
5 *6:13 *6:15 4.5 
6 *6:15 *6:17 275.956 
7 *6:17 *601:io_in[9] 10.602 
8 *6:17 *6:27 4.5 
9 *6:27 *6:29 277.78 
10 *6:29 *6:31 4.5 
11 *6:31 *6:33 101.004 
12 *6:33 *600:io_in[9] 9.25 
13 *6:31 *6:43 64.372 
14 *6:43 *6:49 46.164 
15 *6:49 *6:51 201.37 
16 *6:51 *599:io_in[14] 33.928 
*END

*D_NET *7 0.692187
*CONN
*P io_in[15] I
*I *599:io_in[15] I *D multiplexer
*I *600:io_in[10] I *D wrapped_sid
*I *601:io_in[10] I *D wrapped_qcpu
*CAP
1 io_in[15] 0.00493208
2 *599:io_in[15] 0.00308445
3 *600:io_in[10] 0.000752926
4 *601:io_in[10] 0.00179279
5 *7:59 0.0107493
6 *7:57 0.00918746
7 *7:51 0.00204387
8 *7:41 0.00116545
9 *7:39 0.000933777
10 *7:37 0.0216862
11 *7:35 0.0216862
12 *7:21 0.0399168
13 *7:19 0.038124
14 *7:17 0.0160706
15 *7:15 0.0160706
16 *7:13 0.0482346
17 *7:11 0.0531667
18 *599:io_in[15] *9:59 0.000681805
19 *599:io_in[15] *15:19 0.000234727
20 *599:io_in[15] *16:19 0.000394222
21 *599:io_in[15] *21:21 0.000567713
22 *601:io_in[10] *601:io_in[11] 0
23 *601:io_in[10] *8:29 0
24 *7:21 *8:29 0
25 *7:37 *10:71 0
26 *7:37 *478:9 0.000469293
27 *7:41 *600:io_in[26] 0.0135498
28 *7:41 *600:io_in[27] 0.0120405
29 *7:41 *9:69 0.000165226
30 *7:41 *25:25 0.00211476
31 *7:41 *26:31 0.00213613
32 *7:41 *388:17 0.00181803
33 *7:41 *402:17 0.0226051
34 *7:41 *405:25 0.0212147
35 *7:51 *599:wbs_adr_i[29] 0
36 *7:51 *25:25 0.0478862
37 *7:51 *26:31 0.0468551
38 *7:51 *549:11 0.000133679
39 *7:51 *550:11 0.00163539
40 *7:51 *553:9 0.000665689
41 *7:57 *599:wbs_adr_i[10] 0.000796693
42 *7:57 *31:41 0.00730301
43 *7:57 *560:13 0.0149002
44 *7:59 *42:9 0
45 *7:59 *43:9 0.00409992
46 *7:59 *71:9 0.00799421
47 *7:59 *74:11 0.000258923
48 *7:59 *554:17 0
49 *599:io_in[14] *599:io_in[15] 0.0155877
50 *2:19 *599:io_in[15] 0.000393606
51 *5:21 *599:io_in[15] 0.000422888
52 *6:29 *7:37 0.11353
53 *6:33 *7:41 0.00178789
54 *6:51 *7:59 0.0603464
*RES
1 io_in[15] *7:11 44.682 
2 *7:11 *7:13 328.396 
3 *7:13 *7:15 4.5 
4 *7:15 *7:17 114.076 
5 *7:17 *7:19 4.5 
6 *7:19 *7:21 253.156 
7 *7:21 *601:io_in[10] 10.602 
8 *7:21 *7:35 4.5 
9 *7:35 *7:37 280.364 
10 *7:37 *7:39 4.5 
11 *7:39 *7:41 97.204 
12 *7:41 *600:io_in[10] 8.946 
13 *7:39 *7:51 119.244 
14 *7:51 *7:57 46.012 
15 *7:57 *7:59 146.894 
16 *7:59 *599:io_in[15] 34.9995 
*END

*D_NET *8 0.560889
*CONN
*P io_in[16] I
*I *599:io_in[16] I *D multiplexer
*I *600:io_in[11] I *D wrapped_sid
*I *601:io_in[11] I *D wrapped_qcpu
*CAP
1 io_in[16] 0.043705
2 *599:io_in[16] 0.000789458
3 *600:io_in[11] 0.00832462
4 *601:io_in[11] 0.000458114
5 *8:57 0.0198771
6 *8:55 0.0190876
7 *8:47 0.00832462
8 *8:45 0.0126452
9 *8:43 0.0126452
10 *8:41 0.0190537
11 *8:39 0.0190537
12 *8:29 0.0419037
13 *8:27 0.041609
14 *8:21 0.00398213
15 *8:9 0.0107488
16 *8:7 0.00693013
17 *8:5 0.043705
18 *8:21 *88:9 0
19 *8:41 *11:71 0.0673766