*SPEF "ieee 1481-1999"
*DESIGN "user_project_wrapper"
*DATE "11:11:11 Fri 11 11, 1111"
*VENDOR "OpenRCX"
*PROGRAM "Parallel Extraction"
*VERSION "1.0"
*DESIGN_FLOW "NAME_SCOPE LOCAL" "PIN_CAP NONE"
*DIVIDER /
*DELIMITER :
*BUS_DELIMITER []
*T_UNIT 1 NS
*C_UNIT 1 PF
*R_UNIT 1 OHM
*L_UNIT 1 HENRY

*NAME_MAP
*1 io_in[0]
*2 io_in[10]
*3 io_in[11]
*4 io_in[12]
*5 io_in[13]
*6 io_in[14]
*7 io_in[15]
*8 io_in[16]
*9 io_in[17]
*10 io_in[18]
*11 io_in[19]
*12 io_in[1]
*13 io_in[20]
*14 io_in[21]
*15 io_in[22]
*16 io_in[23]
*17 io_in[24]
*18 io_in[25]
*19 io_in[26]
*20 io_in[27]
*21 io_in[28]
*22 io_in[29]
*23 io_in[2]
*24 io_in[30]
*25 io_in[31]
*26 io_in[32]
*27 io_in[33]
*28 io_in[34]
*29 io_in[35]
*30 io_in[36]
*31 io_in[37]
*32 io_in[3]
*33 io_in[4]
*34 io_in[5]
*35 io_in[6]
*36 io_in[7]
*37 io_in[8]
*38 io_in[9]
*39 io_oeb[0]
*40 io_oeb[10]
*41 io_oeb[11]
*42 io_oeb[12]
*43 io_oeb[13]
*44 io_oeb[14]
*45 io_oeb[15]
*46 io_oeb[16]
*47 io_oeb[17]
*48 io_oeb[18]
*49 io_oeb[19]
*50 io_oeb[1]
*51 io_oeb[20]
*52 io_oeb[21]
*53 io_oeb[22]
*54 io_oeb[23]
*55 io_oeb[24]
*56 io_oeb[25]
*57 io_oeb[26]
*58 io_oeb[27]
*59 io_oeb[28]
*60 io_oeb[29]
*61 io_oeb[2]
*62 io_oeb[30]
*63 io_oeb[31]
*64 io_oeb[32]
*65 io_oeb[33]
*66 io_oeb[34]
*67 io_oeb[35]
*68 io_oeb[36]
*69 io_oeb[37]
*70 io_oeb[3]
*71 io_oeb[4]
*72 io_oeb[5]
*73 io_oeb[6]
*74 io_oeb[7]
*75 io_oeb[8]
*76 io_oeb[9]
*77 io_out[0]
*78 io_out[10]
*79 io_out[11]
*80 io_out[12]
*81 io_out[13]
*82 io_out[14]
*83 io_out[15]
*84 io_out[16]
*85 io_out[17]
*86 io_out[18]
*87 io_out[19]
*88 io_out[1]
*89 io_out[20]
*90 io_out[21]
*91 io_out[22]
*92 io_out[23]
*93 io_out[24]
*94 io_out[25]
*95 io_out[26]
*96 io_out[27]
*97 io_out[28]
*98 io_out[29]
*99 io_out[2]
*100 io_out[30]
*101 io_out[31]
*102 io_out[32]
*103 io_out[33]
*104 io_out[34]
*105 io_out[35]
*106 io_out[36]
*107 io_out[37]
*108 io_out[3]
*109 io_out[4]
*110 io_out[5]
*111 io_out[6]
*112 io_out[7]
*113 io_out[8]
*114 io_out[9]
*115 la_data_in[0]
*116 la_data_in[10]
*117 la_data_in[11]
*118 la_data_in[12]
*119 la_data_in[13]
*120 la_data_in[14]
*121 la_data_in[15]
*122 la_data_in[16]
*123 la_data_in[17]
*124 la_data_in[18]
*125 la_data_in[19]
*126 la_data_in[1]
*127 la_data_in[20]
*128 la_data_in[21]
*129 la_data_in[22]
*130 la_data_in[23]
*131 la_data_in[24]
*132 la_data_in[25]
*133 la_data_in[26]
*134 la_data_in[27]
*135 la_data_in[28]
*136 la_data_in[29]
*137 la_data_in[2]
*138 la_data_in[30]
*139 la_data_in[31]
*140 la_data_in[32]
*141 la_data_in[33]
*142 la_data_in[34]
*143 la_data_in[35]
*144 la_data_in[36]
*145 la_data_in[37]
*146 la_data_in[38]
*147 la_data_in[39]
*148 la_data_in[3]
*149 la_data_in[40]
*150 la_data_in[41]
*151 la_data_in[42]
*152 la_data_in[43]
*153 la_data_in[44]
*154 la_data_in[45]
*155 la_data_in[46]
*156 la_data_in[47]
*157 la_data_in[48]
*158 la_data_in[49]
*159 la_data_in[4]
*160 la_data_in[50]
*161 la_data_in[51]
*162 la_data_in[52]
*163 la_data_in[53]
*164 la_data_in[54]
*165 la_data_in[55]
*166 la_data_in[56]
*167 la_data_in[57]
*168 la_data_in[58]
*169 la_data_in[59]
*170 la_data_in[5]
*171 la_data_in[60]
*172 la_data_in[61]
*173 la_data_in[62]
*174 la_data_in[63]
*175 la_data_in[6]
*176 la_data_in[7]
*177 la_data_in[8]
*178 la_data_in[9]
*179 la_data_out[0]
*180 la_data_out[10]
*181 la_data_out[11]
*182 la_data_out[12]
*183 la_data_out[13]
*184 la_data_out[14]
*185 la_data_out[15]
*186 la_data_out[16]
*187 la_data_out[17]
*188 la_data_out[18]
*189 la_data_out[19]
*190 la_data_out[1]
*191 la_data_out[20]
*192 la_data_out[21]
*193 la_data_out[22]
*194 la_data_out[23]
*195 la_data_out[24]
*196 la_data_out[25]
*197 la_data_out[26]
*198 la_data_out[27]
*199 la_data_out[28]
*200 la_data_out[29]
*201 la_data_out[2]
*202 la_data_out[30]
*203 la_data_out[31]
*204 la_data_out[32]
*205 la_data_out[33]
*206 la_data_out[34]
*207 la_data_out[35]
*208 la_data_out[36]
*209 la_data_out[37]
*210 la_data_out[38]
*211 la_data_out[39]
*212 la_data_out[3]
*213 la_data_out[40]
*214 la_data_out[41]
*215 la_data_out[42]
*216 la_data_out[43]
*217 la_data_out[44]
*218 la_data_out[45]
*219 la_data_out[46]
*220 la_data_out[47]
*221 la_data_out[48]
*222 la_data_out[49]
*223 la_data_out[4]
*224 la_data_out[50]
*225 la_data_out[51]
*226 la_data_out[52]
*227 la_data_out[53]
*228 la_data_out[54]
*229 la_data_out[55]
*230 la_data_out[56]
*231 la_data_out[57]
*232 la_data_out[58]
*233 la_data_out[59]
*234 la_data_out[5]
*235 la_data_out[60]
*236 la_data_out[61]
*237 la_data_out[62]
*238 la_data_out[63]
*239 la_data_out[6]
*240 la_data_out[7]
*241 la_data_out[8]
*242 la_data_out[9]
*243 la_oenb[0]
*244 la_oenb[10]
*245 la_oenb[11]
*246 la_oenb[12]
*247 la_oenb[13]
*248 la_oenb[14]
*249 la_oenb[15]
*250 la_oenb[16]
*251 la_oenb[17]
*252 la_oenb[18]
*253 la_oenb[19]
*254 la_oenb[1]
*255 la_oenb[20]
*256 la_oenb[21]
*257 la_oenb[22]
*258 la_oenb[23]
*259 la_oenb[24]
*260 la_oenb[25]
*261 la_oenb[26]
*262 la_oenb[27]
*263 la_oenb[28]
*264 la_oenb[29]
*265 la_oenb[2]
*266 la_oenb[30]
*267 la_oenb[31]
*268 la_oenb[32]
*269 la_oenb[33]
*270 la_oenb[34]
*271 la_oenb[35]
*272 la_oenb[36]
*273 la_oenb[37]
*274 la_oenb[38]
*275 la_oenb[39]
*276 la_oenb[3]
*277 la_oenb[40]
*278 la_oenb[41]
*279 la_oenb[42]
*280 la_oenb[43]
*281 la_oenb[44]
*282 la_oenb[45]
*283 la_oenb[46]
*284 la_oenb[47]
*285 la_oenb[48]
*286 la_oenb[49]
*287 la_oenb[4]
*288 la_oenb[50]
*289 la_oenb[51]
*290 la_oenb[52]
*291 la_oenb[53]
*292 la_oenb[54]
*293 la_oenb[55]
*294 la_oenb[56]
*295 la_oenb[57]
*296 la_oenb[58]
*297 la_oenb[59]
*298 la_oenb[5]
*299 la_oenb[60]
*300 la_oenb[61]
*301 la_oenb[62]
*302 la_oenb[63]
*303 la_oenb[6]
*304 la_oenb[7]
*305 la_oenb[8]
*306 la_oenb[9]
*307 user_clock2
*308 user_irq[0]
*309 user_irq[1]
*310 user_irq[2]
*313 wb_clk_i
*314 wb_rst_i
*315 wbs_ack_o
*316 wbs_adr_i[0]
*317 wbs_adr_i[10]
*318 wbs_adr_i[11]
*319 wbs_adr_i[12]
*320 wbs_adr_i[13]
*321 wbs_adr_i[14]
*322 wbs_adr_i[15]
*323 wbs_adr_i[16]
*324 wbs_adr_i[17]
*325 wbs_adr_i[18]
*326 wbs_adr_i[19]
*327 wbs_adr_i[1]
*328 wbs_adr_i[20]
*329 wbs_adr_i[21]
*330 wbs_adr_i[22]
*331 wbs_adr_i[23]
*332 wbs_adr_i[24]
*333 wbs_adr_i[25]
*334 wbs_adr_i[26]
*335 wbs_adr_i[27]
*336 wbs_adr_i[28]
*337 wbs_adr_i[29]
*338 wbs_adr_i[2]
*339 wbs_adr_i[30]
*340 wbs_adr_i[31]
*341 wbs_adr_i[3]
*342 wbs_adr_i[4]
*343 wbs_adr_i[5]
*344 wbs_adr_i[6]
*345 wbs_adr_i[7]
*346 wbs_adr_i[8]
*347 wbs_adr_i[9]
*348 wbs_cyc_i
*349 wbs_dat_i[0]
*350 wbs_dat_i[10]
*351 wbs_dat_i[11]
*352 wbs_dat_i[12]
*353 wbs_dat_i[13]
*354 wbs_dat_i[14]
*355 wbs_dat_i[15]
*356 wbs_dat_i[16]
*357 wbs_dat_i[17]
*358 wbs_dat_i[18]
*359 wbs_dat_i[19]
*360 wbs_dat_i[1]
*361 wbs_dat_i[20]
*362 wbs_dat_i[21]
*363 wbs_dat_i[22]
*364 wbs_dat_i[23]
*365 wbs_dat_i[24]
*366 wbs_dat_i[25]
*367 wbs_dat_i[26]
*368 wbs_dat_i[27]
*369 wbs_dat_i[28]
*370 wbs_dat_i[29]
*371 wbs_dat_i[2]
*372 wbs_dat_i[30]
*373 wbs_dat_i[31]
*374 wbs_dat_i[3]
*375 wbs_dat_i[4]
*376 wbs_dat_i[5]
*377 wbs_dat_i[6]
*378 wbs_dat_i[7]
*379 wbs_dat_i[8]
*380 wbs_dat_i[9]
*381 wbs_dat_o[0]
*382 wbs_dat_o[10]
*383 wbs_dat_o[11]
*384 wbs_dat_o[12]
*385 wbs_dat_o[13]
*386 wbs_dat_o[14]
*387 wbs_dat_o[15]
*388 wbs_dat_o[16]
*389 wbs_dat_o[17]
*390 wbs_dat_o[18]
*391 wbs_dat_o[19]
*392 wbs_dat_o[1]
*393 wbs_dat_o[20]
*394 wbs_dat_o[21]
*395 wbs_dat_o[22]
*396 wbs_dat_o[23]
*397 wbs_dat_o[24]
*398 wbs_dat_o[25]
*399 wbs_dat_o[26]
*400 wbs_dat_o[27]
*401 wbs_dat_o[28]
*402 wbs_dat_o[29]
*403 wbs_dat_o[2]
*404 wbs_dat_o[30]
*405 wbs_dat_o[31]
*406 wbs_dat_o[3]
*407 wbs_dat_o[4]
*408 wbs_dat_o[5]
*409 wbs_dat_o[6]
*410 wbs_dat_o[7]
*411 wbs_dat_o[8]
*412 wbs_dat_o[9]
*413 wbs_sel_i[0]
*414 wbs_sel_i[1]
*415 wbs_sel_i[2]
*416 wbs_sel_i[3]
*417 wbs_stb_i
*418 wbs_we_i
*419 ay8913_do\[0\]
*420 ay8913_do\[10\]
*421 ay8913_do\[11\]
*422 ay8913_do\[12\]
*423 ay8913_do\[13\]
*424 ay8913_do\[14\]
*425 ay8913_do\[15\]
*426 ay8913_do\[16\]
*427 ay8913_do\[17\]
*428 ay8913_do\[18\]
*429 ay8913_do\[19\]
*430 ay8913_do\[1\]
*431 ay8913_do\[20\]
*432 ay8913_do\[21\]
*433 ay8913_do\[22\]
*434 ay8913_do\[23\]
*435 ay8913_do\[24\]
*436 ay8913_do\[25\]
*437 ay8913_do\[26\]
*438 ay8913_do\[27\]
*439 ay8913_do\[2\]
*440 ay8913_do\[3\]
*441 ay8913_do\[4\]
*442 ay8913_do\[5\]
*443 ay8913_do\[6\]
*444 ay8913_do\[7\]
*445 ay8913_do\[8\]
*446 ay8913_do\[9\]
*447 blinker_do\[0\]
*448 blinker_do\[1\]
*449 blinker_do\[2\]
*450 custom_settings\[0\]
*451 custom_settings\[10\]
*452 custom_settings\[11\]
*453 custom_settings\[12\]
*454 custom_settings\[13\]
*455 custom_settings\[14\]
*456 custom_settings\[15\]
*457 custom_settings\[16\]
*458 custom_settings\[17\]
*459 custom_settings\[18\]
*460 custom_settings\[19\]
*461 custom_settings\[1\]
*462 custom_settings\[20\]
*463 custom_settings\[21\]
*464 custom_settings\[22\]
*465 custom_settings\[23\]
*466 custom_settings\[24\]
*467 custom_settings\[25\]
*468 custom_settings\[26\]
*469 custom_settings\[27\]
*470 custom_settings\[28\]
*471 custom_settings\[29\]
*472 custom_settings\[2\]
*473 custom_settings\[30\]
*474 custom_settings\[31\]
*475 custom_settings\[3\]
*476 custom_settings\[4\]
*477 custom_settings\[5\]
*478 custom_settings\[6\]
*479 custom_settings\[7\]
*480 custom_settings\[8\]
*481 custom_settings\[9\]
*482 hellorld_do
*483 mc14500_do\[0\]
*484 mc14500_do\[10\]
*485 mc14500_do\[11\]
*486 mc14500_do\[12\]
*487 mc14500_do\[13\]
*488 mc14500_do\[14\]
*489 mc14500_do\[15\]
*490 mc14500_do\[16\]
*491 mc14500_do\[17\]
*492 mc14500_do\[18\]
*493 mc14500_do\[19\]
*494 mc14500_do\[1\]
*495 mc14500_do\[20\]
*496 mc14500_do\[21\]
*497 mc14500_do\[22\]
*498 mc14500_do\[23\]
*499 mc14500_do\[24\]
*500 mc14500_do\[25\]
*501 mc14500_do\[26\]
*502 mc14500_do\[27\]
*503 mc14500_do\[28\]
*504 mc14500_do\[29\]
*505 mc14500_do\[2\]
*506 mc14500_do\[30\]
*507 mc14500_do\[3\]
*508 mc14500_do\[4\]
*509 mc14500_do\[5\]
*510 mc14500_do\[6\]
*511 mc14500_do\[7\]
*512 mc14500_do\[8\]
*513 mc14500_do\[9\]
*514 mc14500_sram_addr\[0\]
*515 mc14500_sram_addr\[1\]
*516 mc14500_sram_addr\[2\]
*517 mc14500_sram_addr\[3\]
*518 mc14500_sram_addr\[4\]
*519 mc14500_sram_addr\[5\]
*520 mc14500_sram_gwe
*521 mc14500_sram_in\[0\]
*522 mc14500_sram_in\[1\]
*523 mc14500_sram_in\[2\]
*524 mc14500_sram_in\[3\]
*525 mc14500_sram_in\[4\]
*526 mc14500_sram_in\[5\]
*527 mc14500_sram_in\[6\]
*528 mc14500_sram_in\[7\]
*529 qcpu_do\[0\]
*530 qcpu_do\[10\]
*531 qcpu_do\[11\]
*532 qcpu_do\[12\]
*533 qcpu_do\[13\]
*534 qcpu_do\[14\]
*535 qcpu_do\[15\]
*536 qcpu_do\[16\]
*537 qcpu_do\[17\]
*538 qcpu_do\[18\]
*539 qcpu_do\[19\]
*540 qcpu_do\[1\]
*541 qcpu_do\[20\]
*542 qcpu_do\[21\]
*543 qcpu_do\[22\]
*544 qcpu_do\[23\]
*545 qcpu_do\[24\]
*546 qcpu_do\[25\]
*547 qcpu_do\[26\]
*548 qcpu_do\[27\]
*549 qcpu_do\[28\]
*550 qcpu_do\[29\]
*551 qcpu_do\[2\]
*552 qcpu_do\[30\]
*553 qcpu_do\[31\]
*554 qcpu_do\[32\]
*555 qcpu_do\[3\]
*556 qcpu_do\[4\]
*557 qcpu_do\[5\]
*558 qcpu_do\[6\]
*559 qcpu_do\[7\]
*560 qcpu_do\[8\]
*561 qcpu_do\[9\]
*562 qcpu_oeb\[0\]
*563 qcpu_oeb\[10\]
*564 qcpu_oeb\[11\]
*565 qcpu_oeb\[12\]
*566 qcpu_oeb\[13\]
*567 qcpu_oeb\[14\]
*568 qcpu_oeb\[15\]
*569 qcpu_oeb\[16\]
*570 qcpu_oeb\[17\]
*571 qcpu_oeb\[18\]
*572 qcpu_oeb\[19\]
*573 qcpu_oeb\[1\]
*574 qcpu_oeb\[20\]
*575 qcpu_oeb\[21\]
*576 qcpu_oeb\[22\]
*577 qcpu_oeb\[23\]
*578 qcpu_oeb\[24\]
*579 qcpu_oeb\[25\]
*580 qcpu_oeb\[26\]
*581 qcpu_oeb\[27\]
*582 qcpu_oeb\[28\]
*583 qcpu_oeb\[29\]
*584 qcpu_oeb\[2\]
*585 qcpu_oeb\[30\]
*586 qcpu_oeb\[31\]
*587 qcpu_oeb\[32\]
*588 qcpu_oeb\[3\]
*589 qcpu_oeb\[4\]
*590 qcpu_oeb\[5\]
*591 qcpu_oeb\[6\]
*592 qcpu_oeb\[7\]
*593 qcpu_oeb\[8\]
*594 qcpu_oeb\[9\]
*595 qcpu_sram_addr\[0\]
*596 qcpu_sram_addr\[1\]
*597 qcpu_sram_addr\[2\]
*598 qcpu_sram_addr\[3\]
*599 qcpu_sram_addr\[4\]
*600 qcpu_sram_addr\[5\]
*601 qcpu_sram_gwe
*602 qcpu_sram_in\[0\]
*603 qcpu_sram_in\[1\]
*604 qcpu_sram_in\[2\]
*605 qcpu_sram_in\[3\]
*606 qcpu_sram_in\[4\]
*607 qcpu_sram_in\[5\]
*608 qcpu_sram_in\[6\]
*609 qcpu_sram_in\[7\]
*610 qcpu_sram_out\[0\]
*611 qcpu_sram_out\[1\]
*612 qcpu_sram_out\[2\]
*613 qcpu_sram_out\[3\]
*614 qcpu_sram_out\[4\]
*615 qcpu_sram_out\[5\]
*616 qcpu_sram_out\[6\]
*617 qcpu_sram_out\[7\]
*618 rst_ay8913
*619 rst_blinker
*620 rst_hellorld
*621 rst_mc14500
*622 rst_qcpu
*623 rst_sid
*624 rst_sn76489
*625 rst_tbb1143
*626 sid_do\[0\]
*627 sid_do\[10\]
*628 sid_do\[11\]
*629 sid_do\[12\]
*630 sid_do\[13\]
*631 sid_do\[14\]
*632 sid_do\[15\]
*633 sid_do\[16\]
*634 sid_do\[17\]
*635 sid_do\[18\]
*636 sid_do\[19\]
*637 sid_do\[1\]
*638 sid_do\[20\]
*639 sid_do\[2\]
*640 sid_do\[3\]
*641 sid_do\[4\]
*642 sid_do\[5\]
*643 sid_do\[6\]
*644 sid_do\[7\]
*645 sid_do\[8\]
*646 sid_do\[9\]
*647 sid_oeb
*648 sn76489_do\[0\]
*649 sn76489_do\[10\]
*650 sn76489_do\[11\]
*651 sn76489_do\[12\]
*652 sn76489_do\[13\]
*653 sn76489_do\[14\]
*654 sn76489_do\[15\]
*655 sn76489_do\[16\]
*656 sn76489_do\[17\]
*657 sn76489_do\[18\]
*658 sn76489_do\[19\]
*659 sn76489_do\[1\]
*660 sn76489_do\[20\]
*661 sn76489_do\[21\]
*662 sn76489_do\[22\]
*663 sn76489_do\[23\]
*664 sn76489_do\[24\]
*665 sn76489_do\[25\]
*666 sn76489_do\[26\]
*667 sn76489_do\[27\]
*668 sn76489_do\[2\]
*669 sn76489_do\[3\]
*670 sn76489_do\[4\]
*671 sn76489_do\[5\]
*672 sn76489_do\[6\]
*673 sn76489_do\[7\]
*674 sn76489_do\[8\]
*675 sn76489_do\[9\]
*676 tbb1143_do\[0\]
*677 tbb1143_do\[1\]
*678 tbb1143_do\[2\]
*679 tbb1143_do\[3\]
*680 tbb1143_do\[4\]
*681 avali_logo
*682 ay8913
*683 blinker
*684 hellorld
*685 mc14500
*686 multiplexer
*687 sid
*688 tbb1143
*689 wrapped_qcpu
*690 wrapped_sn76489

*PORTS
io_in[0] I
io_in[10] I
io_in[11] I
io_in[12] I
io_in[13] I
io_in[14] I
io_in[15] I
io_in[16] I
io_in[17] I
io_in[18] I
io_in[19] I
io_in[1] I
io_in[20] I
io_in[21] I
io_in[22] I
io_in[23] I
io_in[24] I
io_in[25] I
io_in[26] I
io_in[27] I
io_in[28] I
io_in[29] I
io_in[2] I
io_in[30] I
io_in[31] I
io_in[32] I
io_in[33] I
io_in[34] I
io_in[35] I
io_in[36] I
io_in[37] I
io_in[3] I
io_in[4] I
io_in[5] I
io_in[6] I
io_in[7] I
io_in[8] I
io_in[9] I
io_oeb[0] O
io_oeb[10] O
io_oeb[11] O
io_oeb[12] O
io_oeb[13] O
io_oeb[14] O
io_oeb[15] O
io_oeb[16] O
io_oeb[17] O
io_oeb[18] O
io_oeb[19] O
io_oeb[1] O
io_oeb[20] O
io_oeb[21] O
io_oeb[22] O
io_oeb[23] O
io_oeb[24] O
io_oeb[25] O
io_oeb[26] O
io_oeb[27] O
io_oeb[28] O
io_oeb[29] O
io_oeb[2] O
io_oeb[30] O
io_oeb[31] O
io_oeb[32] O
io_oeb[33] O
io_oeb[34] O
io_oeb[35] O
io_oeb[36] O
io_oeb[37] O
io_oeb[3] O
io_oeb[4] O
io_oeb[5] O
io_oeb[6] O
io_oeb[7] O
io_oeb[8] O
io_oeb[9] O
io_out[0] O
io_out[10] O
io_out[11] O
io_out[12] O
io_out[13] O
io_out[14] O
io_out[15] O
io_out[16] O
io_out[17] O
io_out[18] O
io_out[19] O
io_out[1] O
io_out[20] O
io_out[21] O
io_out[22] O
io_out[23] O
io_out[24] O
io_out[25] O
io_out[26] O
io_out[27] O
io_out[28] O
io_out[29] O
io_out[2] O
io_out[30] O
io_out[31] O
io_out[32] O
io_out[33] O
io_out[34] O
io_out[35] O
io_out[36] O
io_out[37] O
io_out[3] O
io_out[4] O
io_out[5] O
io_out[6] O
io_out[7] O
io_out[8] O
io_out[9] O
la_data_in[0] I
la_data_in[10] I
la_data_in[11] I
la_data_in[12] I
la_data_in[13] I
la_data_in[14] I
la_data_in[15] I
la_data_in[16] I
la_data_in[17] I
la_data_in[18] I
la_data_in[19] I
la_data_in[1] I
la_data_in[20] I
la_data_in[21] I
la_data_in[22] I
la_data_in[23] I
la_data_in[24] I
la_data_in[25] I
la_data_in[26] I
la_data_in[27] I
la_data_in[28] I
la_data_in[29] I
la_data_in[2] I
la_data_in[30] I
la_data_in[31] I
la_data_in[32] I
la_data_in[33] I
la_data_in[34] I
la_data_in[35] I
la_data_in[36] I
la_data_in[37] I
la_data_in[38] I
la_data_in[39] I
la_data_in[3] I
la_data_in[40] I
la_data_in[41] I
la_data_in[42] I
la_data_in[43] I
la_data_in[44] I
la_data_in[45] I
la_data_in[46] I
la_data_in[47] I
la_data_in[48] I
la_data_in[49] I
la_data_in[4] I
la_data_in[50] I
la_data_in[51] I
la_data_in[52] I
la_data_in[53] I
la_data_in[54] I
la_data_in[55] I
la_data_in[56] I
la_data_in[57] I
la_data_in[58] I
la_data_in[59] I
la_data_in[5] I
la_data_in[60] I
la_data_in[61] I
la_data_in[62] I
la_data_in[63] I
la_data_in[6] I
la_data_in[7] I
la_data_in[8] I
la_data_in[9] I
la_data_out[0] O
la_data_out[10] O
la_data_out[11] O
la_data_out[12] O
la_data_out[13] O
la_data_out[14] O
la_data_out[15] O
la_data_out[16] O
la_data_out[17] O
la_data_out[18] O
la_data_out[19] O
la_data_out[1] O
la_data_out[20] O
la_data_out[21] O
la_data_out[22] O
la_data_out[23] O
la_data_out[24] O
la_data_out[25] O
la_data_out[26] O
la_data_out[27] O
la_data_out[28] O
la_data_out[29] O
la_data_out[2] O
la_data_out[30] O
la_data_out[31] O
la_data_out[32] O
la_data_out[33] O
la_data_out[34] O
la_data_out[35] O
la_data_out[36] O
la_data_out[37] O
la_data_out[38] O
la_data_out[39] O
la_data_out[3] O
la_data_out[40] O
la_data_out[41] O
la_data_out[42] O
la_data_out[43] O
la_data_out[44] O
la_data_out[45] O
la_data_out[46] O
la_data_out[47] O
la_data_out[48] O
la_data_out[49] O
la_data_out[4] O
la_data_out[50] O
la_data_out[51] O
la_data_out[52] O
la_data_out[53] O
la_data_out[54] O
la_data_out[55] O
la_data_out[56] O
la_data_out[57] O
la_data_out[58] O
la_data_out[59] O
la_data_out[5] O
la_data_out[60] O
la_data_out[61] O
la_data_out[62] O
la_data_out[63] O
la_data_out[6] O
la_data_out[7] O
la_data_out[8] O
la_data_out[9] O
la_oenb[0] I
la_oenb[10] I
la_oenb[11] I
la_oenb[12] I
la_oenb[13] I
la_oenb[14] I
la_oenb[15] I
la_oenb[16] I
la_oenb[17] I
la_oenb[18] I
la_oenb[19] I
la_oenb[1] I
la_oenb[20] I
la_oenb[21] I
la_oenb[22] I
la_oenb[23] I
la_oenb[24] I
la_oenb[25] I
la_oenb[26] I
la_oenb[27] I
la_oenb[28] I
la_oenb[29] I
la_oenb[2] I
la_oenb[30] I
la_oenb[31] I
la_oenb[32] I
la_oenb[33] I
la_oenb[34] I
la_oenb[35] I
la_oenb[36] I
la_oenb[37] I
la_oenb[38] I
la_oenb[39] I
la_oenb[3] I
la_oenb[40] I
la_oenb[41] I
la_oenb[42] I
la_oenb[43] I
la_oenb[44] I
la_oenb[45] I
la_oenb[46] I
la_oenb[47] I
la_oenb[48] I
la_oenb[49] I
la_oenb[4] I
la_oenb[50] I
la_oenb[51] I
la_oenb[52] I
la_oenb[53] I
la_oenb[54] I
la_oenb[55] I
la_oenb[56] I
la_oenb[57] I
la_oenb[58] I
la_oenb[59] I
la_oenb[5] I
la_oenb[60] I
la_oenb[61] I
la_oenb[62] I
la_oenb[63] I
la_oenb[6] I
la_oenb[7] I
la_oenb[8] I
la_oenb[9] I
user_clock2 I
user_irq[0] O
user_irq[1] O
user_irq[2] O
wb_clk_i I
wb_rst_i I
wbs_ack_o O
wbs_adr_i[0] I
wbs_adr_i[10] I
wbs_adr_i[11] I
wbs_adr_i[12] I
wbs_adr_i[13] I
wbs_adr_i[14] I
wbs_adr_i[15] I
wbs_adr_i[16] I
wbs_adr_i[17] I
wbs_adr_i[18] I
wbs_adr_i[19] I
wbs_adr_i[1] I
wbs_adr_i[20] I
wbs_adr_i[21] I
wbs_adr_i[22] I
wbs_adr_i[23] I
wbs_adr_i[24] I
wbs_adr_i[25] I
wbs_adr_i[26] I
wbs_adr_i[27] I
wbs_adr_i[28] I
wbs_adr_i[29] I
wbs_adr_i[2] I
wbs_adr_i[30] I
wbs_adr_i[31] I
wbs_adr_i[3] I
wbs_adr_i[4] I
wbs_adr_i[5] I
wbs_adr_i[6] I
wbs_adr_i[7] I
wbs_adr_i[8] I
wbs_adr_i[9] I
wbs_cyc_i I
wbs_dat_i[0] I
wbs_dat_i[10] I
wbs_dat_i[11] I
wbs_dat_i[12] I
wbs_dat_i[13] I
wbs_dat_i[14] I
wbs_dat_i[15] I
wbs_dat_i[16] I
wbs_dat_i[17] I
wbs_dat_i[18] I
wbs_dat_i[19] I
wbs_dat_i[1] I
wbs_dat_i[20] I
wbs_dat_i[21] I
wbs_dat_i[22] I
wbs_dat_i[23] I
wbs_dat_i[24] I
wbs_dat_i[25] I
wbs_dat_i[26] I
wbs_dat_i[27] I
wbs_dat_i[28] I
wbs_dat_i[29] I
wbs_dat_i[2] I
wbs_dat_i[30] I
wbs_dat_i[31] I
wbs_dat_i[3] I
wbs_dat_i[4] I
wbs_dat_i[5] I
wbs_dat_i[6] I
wbs_dat_i[7] I
wbs_dat_i[8] I
wbs_dat_i[9] I
wbs_dat_o[0] O
wbs_dat_o[10] O
wbs_dat_o[11] O
wbs_dat_o[12] O
wbs_dat_o[13] O
wbs_dat_o[14] O
wbs_dat_o[15] O
wbs_dat_o[16] O
wbs_dat_o[17] O
wbs_dat_o[18] O
wbs_dat_o[19] O
wbs_dat_o[1] O
wbs_dat_o[20] O
wbs_dat_o[21] O
wbs_dat_o[22] O
wbs_dat_o[23] O
wbs_dat_o[24] O
wbs_dat_o[25] O
wbs_dat_o[26] O
wbs_dat_o[27] O
wbs_dat_o[28] O
wbs_dat_o[29] O
wbs_dat_o[2] O
wbs_dat_o[30] O
wbs_dat_o[31] O
wbs_dat_o[3] O
wbs_dat_o[4] O
wbs_dat_o[5] O
wbs_dat_o[6] O
wbs_dat_o[7] O
wbs_dat_o[8] O
wbs_dat_o[9] O
wbs_sel_i[0] I
wbs_sel_i[1] I
wbs_sel_i[2] I
wbs_sel_i[3] I
wbs_stb_i I
wbs_we_i I

*D_NET *1 0.402618
*CONN
*P io_in[0] I
*I *686:io_in[0] I *D multiplexer
*CAP
1 io_in[0] 0.00269772
2 *686:io_in[0] 0.00144762
3 *1:13 0.0635083
4 *1:11 0.0620606
5 *1:9 0.0802868
6 *1:7 0.0829845
7 *686:io_in[0] *686:io_in[1] 0
8 *686:io_in[0] *16:27 0.00041652
9 *686:io_in[0] *29:154 0
10 *1:9 *35:9 0.00533604
11 *1:13 *686:io_in[23] 0.00100667
12 *1:13 *12:13 0
13 *1:13 *16:25 0.0171852
14 *1:13 *19:31 0.000302328
15 *1:13 *21:23 0.000117966
16 *1:13 *24:65 0.00154483
17 *1:13 *27:29 0.00216671
18 *1:13 *32:13 0
19 *1:13 *77:9 0.0352149
20 *1:13 *114:9 0.00436916
21 *1:13 *309:9 0.0180607
22 *1:13 *424:25 0.00488524
23 *1:13 *426:17 0.00438008
24 *1:13 *428:17 0.00494477
25 *1:13 *519:17 0.0097019
*RES
1 io_in[0] *1:7 26.6 
2 *1:7 *1:9 714.135 
3 *1:9 *1:11 4.5 
4 *1:11 *1:13 266.095 
5 *1:13 *686:io_in[0] 24.2306 
*END

*D_NET *2 1.14302
*CONN
*P io_in[10] I
*I *686:io_in[10] I *D multiplexer
*I *682:io_in_1[5] I *D wrapped_ay8913
*I *688:io_in[5] I *D tholin_avalonsemi_tbb1143
*I *687:io_in[5] I *D wrapped_sid
*I *690:io_in_1[5] I *D wrapped_sn76489
*I *689:io_in[5] I *D wrapped_qcpu
*I *685:io_in[5] I *D wrapped_mc14500
*CAP
1 io_in[10] 0.014957
2 *686:io_in[10] 0.000983969
3 *682:io_in_1[5] 0.00251877
4 *688:io_in[5] 0.000196795
5 *687:io_in[5] 0.00151401
6 *690:io_in_1[5] 0.000176926
7 *689:io_in[5] 0.00062085
8 *685:io_in[5] 0.000392196
9 *2:129 0.0150878
10 *2:127 0.012569
11 *2:125 0.013684
12 *2:123 0.013684
13 *2:115 0.00110502
14 *2:111 0.00580863
15 *2:105 0.0101226
16 *2:99 0.0081563
17 *2:97 0.00580409
18 *2:93 0.0253026
19 *2:91 0.0214487
20 *2:77 0.00383677
21 *2:75 0.00232277
22 *2:73 0.00439785
23 *2:71 0.00439785
24 *2:61 0.00806121
25 *2:59 0.00788428
26 *2:57 0.0147382
27 *2:55 0.0154443
28 *2:43 0.0131354
29 *2:41 0.0118084
30 *2:39 0.000366116
31 *2:37 0.00285046
32 *2:23 0.00320097
33 *2:19 0.0197979
34 *2:17 0.0222428
35 *2:5 0.0177264
36 *682:io_in_1[5] *424:21 0.000793216
37 *682:io_in_1[5] *434:13 0.00991178
38 *686:io_in[10] *686:io_in[11] 0
39 *686:io_in[10] *686:io_in[9] 0
40 *687:io_in[5] *687:io_in[2] 0.000100127
41 *687:io_in[5] *687:io_in[4] 0.00835961
42 *687:io_in[5] *687:io_in[6] 0.0106149
43 *687:io_in[5] *4:77 0.000560145
44 *687:io_in[5] *336:13 0.000194866
45 *2:5 *45:13 0.0030867
46 *2:17 *3:17 0.000674269
47 *2:17 *4:17 0.000522341
48 *2:17 *38:78 0.00485431
49 *2:17 *99:9 0.000168215
50 *2:19 *3:17 0.000378144
51 *2:19 *3:19 0.116993
52 *2:19 *3:27 0.000667202
53 *2:19 *36:68 3.04205e-05
54 *2:19 *36:70 0.00141696
55 *2:19 *621:17 0.00207488
56 *2:37 *4:33 0.0152855
57 *2:39 *4:37 0.0305149
58 *2:39 *34:13 0
59 *2:39 *548:9 0.0330689
60 *2:39 *610:13 0.00105853
61 *2:43 *518:13 0.0017668
62 *2:55 *4:53 0.00201321
63 *2:55 *26:51 0
64 *2:55 *34:37 0.00742324
65 *2:55 *36:84 0.000866341
66 *2:55 *36:88 0.00947898
67 *2:57 *467:9 0.00293656
68 *2:73 *3:77 0.0257889
69 *2:73 *4:69 0.000531376
70 *2:77 *4:73 0.107744
71 *2:77 *35:71 0.0991956
72 *2:77 *37:117 0
73 *2:77 *619:25 0.00157159
74 *2:93 *686:io_in[21] 0.00148788
75 *2:93 *4:95 0.0156802
76 *2:93 *5:25 0.0162131
77 *2:93 *6:33 0.000114112
78 *2:93 *8:17 0.000748772
79 *2:93 *8:19 0.160005
80 *2:93 *14:23 0.000906999
81 *2:93 *445:16 0.016798
82 *2:93 *624:9 0.0357275
83 *2:97 *14:23 0.00355438
84 *2:97 *445:16 0.00310866
85 *2:99 *27:25 0.0118486
86 *2:99 *40:6 0.00290979
87 *2:99 *46:9 0.00730155
88 *2:105 *686:mc14500_do[13] 0.000571708
89 *2:125 *37:43 0.00667891
90 *2:129 *4:105 0
91 *2:129 *450:114 0.0523781
*RES
1 io_in[10] *2:5 140.452 
2 *2:5 *2:17 42.932 
3 *2:17 *2:19 310.44 
4 *2:19 *2:23 7.1 
5 *2:23 *685:io_in[5] 2.86 
6 *2:23 *2:37 48.416 
7 *2:37 *2:39 83.304 
8 *2:39 *2:41 4.5 
9 *2:41 *2:43 90.376 
10 *2:43 *689:io_in[5] 3.796 
11 *2:43 *2:55 40.512 
12 *2:55 *2:57 118.456 
13 *2:57 *2:59 4.5 
14 *2:59 *2:61 66.664 
15 *2:61 *690:io_in_1[5] 0.988 
16 *2:61 *2:71 4.5 
17 *2:71 *2:73 69.992 
18 *2:73 *2:75 4.5 
19 *2:75 *2:77 273.208 
20 *2:77 *687:io_in[5] 46.388 
21 *2:17 *2:91 4.5 
22 *2:91 *2:93 484.536 
23 *2:93 *2:97 36.012 
24 *2:97 *2:99 73.944 
25 *2:99 *2:105 45.164 
26 *2:105 *2:111 46.62 
27 *2:111 *2:115 10.636 
28 *2:115 *688:io_in[5] 1.3 
29 *2:115 *2:123 4.5 
30 *2:123 *2:125 111.176 
31 *2:125 *2:127 4.5 
32 *2:127 *2:129 173.16 
33 *2:129 *682:io_in_1[5] 40.98 
34 *2:93 *686:io_in[10] 9.96 
*END

*D_NET *3 1.10399
*CONN
*P io_in[11] I
*I *686:io_in[11] I *D multiplexer
*I *682:io_in_1[6] I *D wrapped_ay8913
*I *688:clk I *D tholin_avalonsemi_tbb1143
*I *687:io_in[6] I *D wrapped_sid
*I *690:io_in_1[6] I *D wrapped_sn76489
*I *689:io_in[6] I *D wrapped_qcpu
*I *685:io_in[6] I *D wrapped_mc14500
*CAP
1 io_in[11] 0.00204134
2 *686:io_in[11] 0.000777368
3 *682:io_in_1[6] 0.00406226
4 *688:clk 0.00512099
5 *687:io_in[6] 0.00125741
6 *690:io_in_1[6] 0.000203969
7 *689:io_in[6] 0.000592205
8 *685:io_in[6] 0.000179257
9 *3:127 0.0139258
10 *3:125 0.00986359
11 *3:123 0.0116677
12 *3:121 0.0166474
13 *3:107 0.0100762
14 *3:105 0.00993493
15 *3:103 0.0111267
16 *3:101 0.0123046
17 *3:97 0.0365682
18 *3:95 0.034613
19 *3:81 0.0122338
20 *3:79 0.0109764
21 *3:77 0.000886764
22 *3:75 0.000886764
23 *3:65 0.00279817
24 *3:61 0.0155771
25 *3:59 0.0129829
26 *3:57 0.00153285
27 *3:55 0.00153285
28 *3:45 0.0121633
29 *3:43 0.0115711
30 *3:41 0.000571077
31 *3:39 0.000571077
32 *3:37 0.000464998
33 *3:35 0.000464998
34 *3:27 0.000755765
35 *3:19 0.00141267
36 *3:17 0.00189763
37 *3:13 0.0105888
38 *3:11 0.00952732
39 *3:9 0.0109587
40 *3:7 0.013
41 *686:io_in[11] *686:io_in[12] 0
42 *686:io_in[11] *9:51 7.86035e-06
43 *687:io_in[6] *4:77 0.0127307
44 *687:io_in[6] *336:13 0
45 *3:13 *33:13 0
46 *3:13 *308:9 0.0131317
47 *3:17 *4:17 0.00088865
48 *3:17 *4:19 0.000103788
49 *3:17 *38:78 0.000175032
50 *3:19 *4:19 0.116692
51 *3:19 *36:68 0.000107163
52 *3:19 *621:17 0.000627366
53 *3:27 *36:68 0.00165262
54 *3:27 *621:17 0.000132528
55 *3:37 *4:33 0.0168908
56 *3:37 *30:55 0.01696
57 *3:41 *685:clk_i 0.00474674
58 *3:41 *685:sram_out[3] 0.000247638
59 *3:41 *35:29 0.000204732
60 *3:41 *554:9 0.0314517
61 *3:41 *613:13 0.0244975
62 *3:41 *617:13 0.000281608
63 *3:45 *523:13 0.00113177
64 *3:57 *4:53 0.0222607
65 *3:57 *11:99 0.0307746
66 *3:57 *34:37 0.00105746
67 *3:61 *457:9 0.00684009
68 *3:65 *454:13 0.000192212
69 *3:77 *4:69 0.0306373
70 *3:81 *34:57 0
71 *3:81 *36:110 0.0173409
72 *3:81 *38:45 0.0460169
73 *3:97 *4:95 0.180304
74 *3:97 *4:97 0.0006455
75 *3:97 *104:9 0
76 *3:97 *113:9 0
77 *3:97 *514:17 0
78 *3:97 *515:17 0
79 *3:101 *4:97 0.0147305
80 *3:101 *35:129 0.0116724
81 *3:101 *104:9 0
82 *3:103 *484:13 0
83 *3:103 *487:13 0
84 *3:103 *506:21 0.0270853
85 *3:103 *620:11 0
86 *3:107 *686:sid_do[13] 0
87 *3:121 *24:13 0.00233245
88 *686:io_in[10] *686:io_in[11] 0
89 *687:io_in[5] *687:io_in[6] 0.0106149
90 *2:17 *3:17 0.000674269
91 *2:19 *3:17 0.000378144
92 *2:19 *3:19 0.116993
93 *2:19 *3:27 0.000667202
94 *2:73 *3:77 0.0257889
*RES
1 io_in[11] *3:7 20.36 
2 *3:7 *3:9 91.624 
3 *3:9 *3:11 4.5 
4 *3:11 *3:13 126.152 
5 *3:13 *3:17 15.212 
6 *3:17 *3:19 301.288 
7 *3:19 *3:27 12.508 
8 *3:27 *685:io_in[6] 1.3 
9 *3:27 *3:35 4.5 
10 *3:35 *3:37 45.864 
11 *3:37 *3:39 4.5 
12 *3:39 *3:41 79.768 
13 *3:41 *3:43 4.5 
14 *3:43 *3:45 88.504 
15 *3:45 *689:io_in[6] 3.9 
16 *3:45 *3:55 4.5 
17 *3:55 *3:57 78.312 
18 *3:57 *3:59 4.5 
19 *3:59 *3:61 105.352 
20 *3:61 *3:65 27.692 
21 *3:65 *690:io_in_1[6] 1.196 
22 *3:65 *3:75 4.5 
23 *3:75 *3:77 78.728 
24 *3:77 *3:79 4.5 
25 *3:79 *3:81 273.208 
26 *3:81 *687:io_in[6] 47.844 
27 *3:17 *3:95 4.5 
28 *3:95 *3:97 483.08 
29 *3:97 *3:101 44.54 
30 *3:101 *3:103 120.536 
31 *3:103 *3:105 4.5 
32 *3:105 *3:107 78.52 
33 *3:107 *688:clk 1.3 
34 *688:clk *3:121 43.42 
35 *3:121 *3:123 101.504 
36 *3:123 *3:125 4.5 
37 *3:125 *3:127 80.184 
38 *3:127 *682:io_in_1[6] 38.872 
39 *3:97 *686:io_in[11] 8.92 
*END

*D_NET *4 1.10987
*CONN
*P io_in[12] I
*I *686:io_in[12] I *D multiplexer
*I *682:io_in_1[7] I *D wrapped_ay8913
*I *690:io_in_1[7] I *D wrapped_sn76489
*I *687:io_in[7] I *D wrapped_sid
*I *689:io_in[7] I *D wrapped_qcpu
*I *685:io_in[7] I *D wrapped_mc14500
*CAP
1 io_in[12] 0.0158905
2 *686:io_in[12] 0.000811499
3 *682:io_in_1[7] 0.000939803
4 *690:io_in_1[7] 0.000118684
5 *687:io_in[7] 0.000806732
6 *689:io_in[7] 0.000660558
7 *685:io_in[7] 0.000243485
8 *4:105 0.027788
9 *4:103 0.0268482
10 *4:101 0.0235504
11 *4:99 0.0235504
12 *4:97 0.00120963
13 *4:95 0.0187784
14 *4:93 0.0167573
15 *4:77 0.00376592
16 *4:73 0.0201105
17 *4:71 0.0171513
18 *4:69 0.00663325
19 *4:67 0.00669404
20 *4:61 0.00376039
21 *4:57 0.0151229
22 *4:55 0.011542
23 *4:53 0.000875733
24 *4:51 0.000875733
25 *4:41 0.0116563
26 *4:39 0.0109957
27 *4:37 0.000341499
28 *4:35 0.000341499
29 *4:33 0.000780157
30 *4:31 0.000780157
31 *4:23 0.000769952
32 *4:19 0.0104888
33 *4:17 0.0104048
34 *4:9 0.0213541
35 *4:7 0.0209116
36 *4:5 0.0158905
37 *682:io_in_1[7] *427:19 0.00024696
38 *682:io_in_1[7] *436:13 0.000209471
39 *686:io_in[12] *686:io_in[13] 0
40 *686:io_in[12] *9:51 7.51586e-05
41 *689:io_in[7] *689:io_in[8] 6.12201e-05
42 *4:17 *32:13 0.000266413
43 *4:17 *38:78 0.000123128
44 *4:17 *99:9 0.000240015
45 *4:19 *36:68 0.0147421
46 *4:19 *38:9 0.0122443
47 *4:19 *38:78 0.00257346
48 *4:19 *621:17 0.000583786
49 *4:33 *30:55 0.000790025
50 *4:37 *685:sram_out[4] 0.00132492
51 *4:37 *30:53 0.0070986
52 *4:37 *34:13 8.77606e-06
53 *4:37 *610:13 0.0202066
54 *4:41 *689:io_in[8] 0.00201387
55 *4:41 *521:13 0.00151381
56 *4:53 *11:99 0.000535146
57 *4:53 *34:37 0.0160823
58 *4:57 *462:9 0.00501365
59 *4:61 *456:13 0.00624875
60 *4:73 *34:57 0
61 *4:73 *37:117 0
62 *4:73 *619:25 2.84715e-05
63 *4:77 *336:13 0
64 *4:95 *425:22 0.0140893
65 *4:95 *446:18 0.0595684
66 *4:95 *624:9 0.000863934
67 *4:97 *35:129 0.00277059
68 *4:97 *446:18 0.0224078
69 *4:101 *513:13 0
70 *686:io_in[11] *686:io_in[12] 0
71 *687:io_in[5] *4:77 0.000560145
72 *687:io_in[6] *4:77 0.0127307
73 *2:17 *4:17 0.000522341
74 *2:37 *4:33 0.0152855
75 *2:39 *4:37 0.0305149
76 *2:55 *4:53 0.00201321
77 *2:73 *4:69 0.000531376
78 *2:77 *4:73 0.107744
79 *2:93 *4:95 0.0156802
80 *2:129 *4:105 0
81 *3:17 *4:17 0.00088865
82 *3:17 *4:19 0.000103788
83 *3:19 *4:19 0.116692
84 *3:37 *4:33 0.0168908
85 *3:57 *4:53 0.0222607
86 *3:77 *4:69 0.0306373
87 *3:97 *4:95 0.180304
88 *3:97 *4:97 0.0006455
89 *3:101 *4:97 0.0147305
*RES
1 io_in[12] *4:5 137.54 