*SPEF "ieee 1481-1999"
*DESIGN "wrapped_mc14500"
*DATE "12:40:32 Thursday July 31, 2025"
*VENDOR "The OpenROAD Project"
*PROGRAM "OpenROAD"
*VERSION "b16bda7e82721d10566ff7e2b68f1ff0be9f9e38"
*DESIGN_FLOW "NAME_SCOPE LOCAL" "PIN_CAP NONE"
*DIVIDER /
*DELIMITER :
*BUS_DELIMITER []
*T_UNIT 1 NS
*C_UNIT 1 PF
*R_UNIT 1 OHM
*L_UNIT 1 HENRY

*NAME_MAP
*1 SDI
*2 clk_i
*3 custom_setting
*4 io_in[0]
*5 io_in[1]
*6 io_in[2]
*7 io_in[3]
*8 io_in[4]
*9 io_in[5]
*10 io_in[6]
*11 io_in[7]
*12 net68
*13 io_out[10]
*14 io_out[11]
*15 io_out[12]
*16 io_out[13]
*17 io_out[14]
*18 io_out[15]
*19 io_out[16]
*20 io_out[17]
*21 io_out[18]
*22 io_out[19]
*23 net69
*24 io_out[20]
*25 io_out[21]
*26 io_out[22]
*27 io_out[23]
*28 io_out[24]
*29 io_out[25]
*30 io_out[26]
*31 io_out[27]
*32 io_out[28]
*33 io_out[29]
*34 net70
*35 io_out[30]
*36 net71
*37 net72
*38 net73
*39 net74
*40 net75
*41 io_out[8]
*42 io_out[9]
*43 rst_n
*44 sram_addr[0]
*45 sram_addr[1]
*46 sram_addr[2]
*47 sram_addr[3]
*48 sram_addr[4]
*49 sram_addr[5]
*50 sram_gwe
*51 sram_in[0]
*52 sram_in[1]
*53 sram_in[2]
*54 sram_in[3]
*55 sram_in[4]
*56 sram_in[5]
*57 sram_in[6]
*58 sram_in[7]
*59 sram_out[0]
*60 sram_out[1]
*61 sram_out[2]
*62 sram_out[3]
*63 sram_out[4]
*64 sram_out[5]
*65 sram_out[6]
*66 sram_out[7]
*69 SCLK
*70 SDO
*71 _0000_
*72 _0001_
*73 _0002_
*74 _0003_
*75 _0004_
*76 _0005_
*77 _0006_
*78 _0007_
*79 _0008_
*80 _0009_
*81 _0010_
*82 _0011_
*83 _0012_
*84 _0013_
*85 _0014_
*86 _0015_
*87 _0016_
*88 _0017_
*89 _0018_
*90 _0019_
*91 _0020_
*92 _0021_
*93 _0022_
*94 _0023_
*95 _0024_
*96 _0025_
*97 _0026_
*98 _0027_
*99 _0028_
*100 _0029_
*101 _0030_
*102 _0031_
*103 _0032_
*104 _0033_
*105 _0034_
*106 _0035_
*107 _0036_
*108 _0037_
*109 _0038_
*110 _0039_
*111 _0040_
*112 _0041_
*113 _0042_
*114 _0043_
*115 _0044_
*116 _0045_
*117 _0046_
*118 _0047_
*119 _0048_
*120 _0049_
*121 _0050_
*122 _0051_
*123 _0052_
*124 _0053_
*125 _0054_
*126 _0055_
*127 _0056_
*128 _0057_
*129 _0058_
*130 _0059_
*131 _0060_
*132 _0061_
*133 _0062_
*134 _0063_
*135 _0064_
*136 _0065_
*137 _0066_
*138 _0067_
*139 _0068_
*140 _0069_
*141 _0070_
*142 _0071_
*143 _0072_
*144 _0073_
*145 _0074_
*146 _0075_
*147 _0076_
*148 _0077_
*149 _0078_
*150 _0079_
*151 _0080_
*152 _0081_
*153 _0082_
*154 _0083_
*155 _0084_
*156 _0085_
*157 _0086_
*158 _0087_
*159 _0088_
*160 _0089_
*161 _0090_
*162 _0091_
*163 _0092_
*164 _0093_
*165 _0094_
*166 _0095_
*167 _0096_
*168 _0097_
*169 _0098_
*170 _0099_
*171 _0100_
*172 _0101_
*173 _0102_
*174 _0103_
*175 _0104_
*176 _0105_
*177 _0106_
*178 _0107_
*179 _0108_
*180 _0109_
*181 _0110_
*182 _0111_
*183 _0112_
*184 _0113_
*185 _0114_
*186 _0115_
*187 _0116_
*188 _0117_
*189 _0118_
*190 _0119_
*191 _0120_
*192 _0121_
*193 _0122_
*194 _0123_
*195 _0124_
*196 _0125_
*197 _0126_
*198 _0127_
*199 _0128_
*200 _0129_
*201 _0130_
*202 _0131_
*203 _0132_
*204 _0133_
*205 _0134_
*206 _0135_
*207 _0136_
*208 _0137_
*209 _0138_
*210 _0139_
*211 _0140_
*212 _0141_
*213 _0142_
*214 _0143_
*215 _0144_
*216 _0145_
*217 _0146_
*218 _0147_
*219 _0148_
*220 _0149_
*221 _0150_
*222 _0151_
*223 _0152_
*224 _0153_
*225 _0154_
*226 _0155_
*227 _0156_
*228 _0157_
*229 _0158_
*230 _0159_
*231 _0160_
*232 _0161_
*233 _0162_
*234 _0163_
*235 _0164_
*236 _0165_
*237 _0166_
*238 _0167_
*239 _0168_
*240 _0169_
*241 _0170_
*242 _0171_
*243 _0172_
*244 _0173_
*245 _0174_
*246 _0175_
*247 _0176_
*248 _0177_
*249 _0178_
*250 _0179_
*251 _0180_
*252 _0181_
*253 _0182_
*254 _0183_
*255 _0184_
*256 _0185_
*257 _0186_
*258 _0187_
*259 _0188_
*260 _0189_
*261 _0190_
*262 _0191_
*263 _0192_
*264 _0193_
*265 _0194_
*266 _0195_
*267 _0196_
*268 _0197_
*269 _0198_
*270 _0199_
*271 _0200_
*272 _0201_
*273 _0202_
*274 _0203_
*275 _0204_
*276 _0205_
*277 _0206_
*278 _0207_
*279 _0208_
*280 _0209_
*281 _0210_
*282 _0211_
*283 _0212_
*284 _0213_
*285 _0214_
*286 _0215_
*287 _0216_
*288 _0217_
*289 _0218_
*290 _0219_
*291 _0220_
*292 _0221_
*293 _0222_
*294 _0223_
*295 _0224_
*296 _0225_
*297 _0226_
*298 _0227_
*299 _0228_
*300 _0229_
*301 _0230_
*302 _0231_
*303 _0232_
*304 _0233_
*305 _0234_
*306 _0235_
*307 _0236_
*308 _0237_
*309 _0238_
*310 _0239_
*311 _0240_
*312 _0241_
*313 _0242_
*314 _0243_
*315 _0244_
*316 _0245_
*317 _0246_
*318 _0247_
*319 _0248_
*320 _0249_
*321 _0250_
*322 _0251_
*323 _0252_
*324 _0253_
*325 _0254_
*326 _0255_
*327 _0256_
*328 _0257_
*329 _0258_
*330 _0259_
*331 _0260_
*332 _0261_
*333 _0262_
*334 _0263_
*335 _0264_
*336 _0265_
*337 _0266_
*338 _0267_
*339 _0268_
*340 _0269_
*341 _0270_
*342 _0271_
*343 _0272_
*344 _0273_
*345 _0274_
*346 _0275_
*347 _0276_
*348 _0277_
*349 _0278_
*350 _0279_
*351 _0280_
*352 _0281_
*353 _0282_
*354 _0283_
*355 _0284_
*356 _0285_
*357 _0286_
*358 _0287_
*359 _0288_
*360 _0289_
*361 _0290_
*362 _0291_
*363 _0292_
*364 _0293_
*365 _0294_
*366 _0295_
*367 _0296_
*368 _0297_
*369 _0298_
*370 _0299_
*371 _0300_
*372 _0301_
*373 _0302_
*374 _0303_
*375 _0304_
*376 _0305_
*377 _0306_
*378 _0307_
*379 _0308_
*380 _0309_
*381 _0310_
*382 _0311_
*383 _0312_
*384 _0313_
*385 _0314_
*386 _0315_
*387 _0316_
*388 _0317_
*389 _0318_
*390 _0319_
*391 _0320_
*392 _0321_
*393 _0322_
*394 _0323_
*395 _0324_
*396 _0325_
*397 _0326_
*398 _0327_
*399 _0328_
*400 _0329_
*401 _0330_
*402 _0331_
*403 _0332_
*404 _0333_
*405 _0334_
*406 _0335_
*407 _0336_
*408 _0337_
*409 _0338_
*410 _0339_
*411 _0340_
*412 _0341_
*413 _0342_
*414 _0343_
*415 _0344_
*416 _0345_
*417 _0346_
*418 _0347_
*419 _0348_
*420 _0349_
*421 _0350_
*422 _0351_
*423 _0352_
*424 _0353_
*425 _0354_
*426 _0355_
*427 _0356_
*428 _0357_
*429 _0358_
*430 _0359_
*431 _0360_
*432 _0361_
*433 _0362_
*434 _0363_
*435 _0364_
*436 _0365_
*437 _0366_
*438 _0367_
*439 _0368_
*440 _0369_
*441 _0370_
*442 _0371_
*443 _0372_
*444 _0373_
*445 _0374_
*446 _0375_
*447 _0376_
*448 _0377_
*449 _0378_
*450 _0379_
*451 _0380_
*452 _0381_
*453 _0382_
*454 _0383_
*455 _0384_
*456 _0385_
*457 _0386_
*458 _0387_
*459 _0388_
*460 _0389_
*461 _0390_
*462 _0391_
*463 _0392_
*464 _0393_
*465 _0394_
*466 _0395_
*467 _0396_
*468 _0397_
*469 _0398_
*470 _0399_
*471 _0400_
*472 _0401_
*473 _0402_
*474 _0403_
*475 _0404_
*476 _0405_
*477 _0406_
*478 _0407_
*479 _0408_
*480 _0409_
*481 _0410_
*482 _0411_
*483 _0412_
*484 _0413_
*485 _0414_
*486 _0415_
*487 _0416_
*488 _0417_
*489 _0418_
*490 _0419_
*491 _0420_
*492 _0421_
*493 _0422_
*494 _0423_
*495 _0424_
*496 _0425_
*497 _0426_
*498 _0427_
*499 _0428_
*500 _0429_
*501 _0430_
*502 _0431_
*503 _0432_
*504 _0433_
*505 _0434_
*506 _0435_
*507 _0436_
*508 _0437_
*509 _0438_
*510 _0439_
*511 _0440_
*512 _0441_
*513 _0442_
*514 _0443_
*515 _0444_
*516 _0445_
*517 _0446_
*518 _0447_
*519 _0448_
*520 _0449_
*521 _0450_
*522 _0451_
*523 _0452_
*524 _0453_
*525 _0454_
*526 _0455_
*527 _0456_
*528 _0457_
*529 _0458_
*530 _0459_
*531 _0460_
*532 _0461_
*533 _0462_
*534 _0463_
*535 _0464_
*536 _0465_
*537 _0466_
*538 _0467_
*539 _0468_
*540 _0469_
*541 _0470_
*542 _0471_
*543 _0472_
*544 _0473_
*545 _0474_
*546 _0475_
*547 _0476_
*548 _0477_
*549 _0478_
*550 _0479_
*551 _0480_
*552 _0481_
*553 _0482_
*554 _0483_
*555 _0484_
*556 _0485_
*557 _0486_
*558 _0487_
*559 _0488_
*560 _0489_
*561 _0490_
*562 _0491_
*563 _0492_
*564 _0493_
*565 _0494_
*566 _0495_
*567 _0496_
*568 _0497_
*569 _0498_
*570 _0499_
*571 _0500_
*572 _0501_
*573 _0502_
*574 _0503_
*575 _0504_
*576 _0505_
*577 _0506_
*578 _0507_
*579 _0508_
*580 _0509_
*581 _0510_
*582 _0511_
*583 _0512_
*584 _0513_
*585 _0514_
*586 _0515_
*587 _0516_
*588 _0517_
*589 _0518_
*590 _0519_
*591 _0520_
*592 _0521_
*593 _0522_
*594 _0523_
*595 _0524_
*596 _0525_
*597 _0526_
*598 _0527_
*599 _0528_
*600 _0529_
*601 _0530_
*602 _0531_
*603 _0532_
*604 _0533_
*605 _0534_
*606 _0535_
*607 _0536_
*608 _0537_
*609 _0538_
*610 _0539_
*611 _0540_
*612 _0541_
*613 _0542_
*614 _0543_
*615 _0544_
*616 _0545_
*617 _0546_
*618 _0547_
*619 _0548_
*620 _0549_
*621 _0550_
*622 _0551_
*623 _0552_
*624 _0553_
*625 _0554_
*626 _0555_
*627 _0556_
*628 _0557_
*629 _0558_
*630 _0559_
*631 _0560_
*632 _0561_
*633 clknet_0_clk_i
*634 clknet_3_0__leaf_clk_i
*635 clknet_3_1__leaf_clk_i
*636 clknet_3_2__leaf_clk_i
*637 clknet_3_3__leaf_clk_i
*638 clknet_3_4__leaf_clk_i
*639 clknet_3_5__leaf_clk_i
*640 clknet_3_6__leaf_clk_i
*641 clknet_3_7__leaf_clk_i
*642 dest\[0\]
*643 dest\[10\]
*644 dest\[11\]
*645 dest\[12\]
*646 dest\[13\]
*647 dest\[14\]
*648 dest\[15\]
*649 dest\[16\]
*650 dest\[1\]
*651 dest\[2\]
*652 dest\[3\]
*653 dest\[4\]
*654 dest\[5\]
*655 dest\[6\]
*656 dest\[7\]
*657 dest\[8\]
*658 dest\[9\]
*659 dia\[0\]
*660 dia\[1\]
*661 dia\[2\]
*662 dia\[3\]
*663 dia\[4\]
*664 dia\[5\]
*665 dia\[6\]
*666 dia\[7\]
*667 dib\[0\]
*668 dib\[1\]
*669 dib\[2\]
*670 dib\[3\]
*671 dib\[4\]
*672 dib\[5\]
*673 dib\[6\]
*674 dib\[7\]
*675 mar\[0\]
*676 mar\[1\]
*677 mar\[2\]
*678 mar\[3\]
*679 mar\[4\]
*680 mar\[5\]
*681 mar\[6\]
*682 mar\[7\]
*683 mc14500\.DATA_OUT
*684 mc14500\.FLAG_O
*685 mc14500\.IEN_l
*686 mc14500\.OEN_l
*687 mc14500\.RR
*688 mc14500\.X1
*689 mc14500\.instr_l\[0\]
*690 mc14500\.instr_l\[1\]
*691 mc14500\.instr_l\[2\]
*692 mc14500\.instr_l\[3\]
*693 mc14500\.skip
*694 net1
*695 net10
*696 net11
*697 net12
*698 net13
*699 net14
*700 net15
*701 net16
*702 net17
*703 net18
*704 net19
*705 net2
*706 net20
*707 net21
*708 net22
*709 net23
*710 net24
*711 net25
*712 net26
*713 net27
*714 net28
*715 net29
*716 net3
*717 net30
*718 net31
*719 net32
*720 net33
*721 net34
*722 net35
*723 net36
*724 net37
*725 net38
*726 net39
*727 net4
*728 net40
*729 net41
*730 net42
*731 net43
*732 net44
*733 net45
*734 net46
*735 net47
*736 net48
*737 net49
*738 net5
*739 net50
*740 net51
*741 net52
*742 net53
*743 net54
*744 net55
*745 net56
*746 net57
*747 net58
*748 net59
*749 net6
*750 net60
*751 net61
*752 net62
*753 net63
*754 net64
*755 net65
*756 net66
*757 net67
*758 net7
*759 net8
*760 net9
*761 out_1
*762 out_2
*763 rst_latency\[0\]
*764 rst_latency\[1\]
*765 scratch\[0\]
*766 scratch\[1\]
*767 scratch\[2\]
*768 scratch\[3\]
*769 scratch\[4\]
*770 scratch\[5\]
*771 ANTENNA__0563__A
*772 ANTENNA__0569__B
*773 ANTENNA__0569__C
*774 ANTENNA__0572__A
*775 ANTENNA__0582__A
*776 ANTENNA__0586__A
*777 ANTENNA__0588__A
*778 ANTENNA__0593__A
*779 ANTENNA__0595__A
*780 ANTENNA__0596__A
*781 ANTENNA__0609__A
*782 ANTENNA__0613__A
*783 ANTENNA__0616__A
*784 ANTENNA__0629__A
*785 ANTENNA__0633__A
*786 ANTENNA__0649__A
*787 ANTENNA__0651__A
*788 ANTENNA__0654__B
*789 ANTENNA__0655__A
*790 ANTENNA__0662__A
*791 ANTENNA__0666__A
*792 ANTENNA__0685__S
*793 ANTENNA__0687__B
*794 ANTENNA__0690__A
*795 ANTENNA__0692__B
*796 ANTENNA__0694__B
*797 ANTENNA__0696__A
*798 ANTENNA__0696__B
*799 ANTENNA__0701__A
*800 ANTENNA__0706__A
*801 ANTENNA__0708__A
*802 ANTENNA__0713__A
*803 ANTENNA__0713__C
*804 ANTENNA__0715__A
*805 ANTENNA__0716__A
*806 ANTENNA__0718__A
*807 ANTENNA__0719__A
*808 ANTENNA__0726__A
*809 ANTENNA__0727__B
*810 ANTENNA__0741__A
*811 ANTENNA__0798__A
*812 ANTENNA__0804__C
*813 ANTENNA__0818__A
*814 ANTENNA__0821__A
*815 ANTENNA__0827__A
*816 ANTENNA__0831__A
*817 ANTENNA__0835__A
*818 ANTENNA__0837__A
*819 ANTENNA__0840__A
*820 ANTENNA__0844__A
*821 ANTENNA__0847__A
*822 ANTENNA__0851__A
*823 ANTENNA__0855__A
*824 ANTENNA__0863__A
*825 ANTENNA__0866__A
*826 ANTENNA__0872__B
*827 ANTENNA__0872__C
*828 ANTENNA__0874__A
*829 ANTENNA__0878__B
*830 ANTENNA__0881__B
*831 ANTENNA__0883__B
*832 ANTENNA__0889__B
*833 ANTENNA__0893__A
*834 ANTENNA__0898__B
*835 ANTENNA__0902__A
*836 ANTENNA__0904__B
*837 ANTENNA__0905__B
*838 ANTENNA__0908__B
*839 ANTENNA__0910__A
*840 ANTENNA__0924__A
*841 ANTENNA__0925__A
*842 ANTENNA__0929__B
*843 ANTENNA__0939__A
*844 ANTENNA__0953__A
*845 ANTENNA__0966__A
*846 ANTENNA__0968__D
*847 ANTENNA__0971__A
*848 ANTENNA__0986__A
*849 ANTENNA__0995__A
*850 ANTENNA__1000__A
*851 ANTENNA__1010__C
*852 ANTENNA__1015__A
*853 ANTENNA__1027__C
*854 ANTENNA__1037__B
*855 ANTENNA__1039__A
*856 ANTENNA__1044__A
*857 ANTENNA__1053__B
*858 ANTENNA__1056__A
*859 ANTENNA__1059__A
*860 ANTENNA__1076__A
*861 ANTENNA__1082__B
*862 ANTENNA__1093__D
*863 ANTENNA__1097__A
*864 ANTENNA__1099__A
*865 ANTENNA__1100__A
*866 ANTENNA__1108__A
*867 ANTENNA__1120__A
*868 ANTENNA__1124__A
*869 ANTENNA__1126__CLK
*870 ANTENNA__1128__CLK
*871 ANTENNA__1131__CLK
*872 ANTENNA__1132__CLK
*873 ANTENNA__1133__CLK
*874 ANTENNA__1134__CLK
*875 ANTENNA__1140__CLK
*876 ANTENNA__1141__CLK
*877 ANTENNA__1142__CLK
*878 ANTENNA__1143__CLK
*879 ANTENNA__1146__CLK
*880 ANTENNA__1148__CLK
*881 ANTENNA__1149__CLK
*882 ANTENNA__1150__CLK
*883 ANTENNA__1151__CLK
*884 ANTENNA__1152__CLK
*885 ANTENNA__1154__CLK
*886 ANTENNA__1158__D
*887 ANTENNA__1159__D
*888 ANTENNA__1160__D
*889 ANTENNA__1161__D
*890 ANTENNA__1163__CLK
*891 ANTENNA__1166__CLK
*892 ANTENNA__1167__CLK
*893 ANTENNA__1171__CLK
*894 ANTENNA__1176__CLK
*895 ANTENNA__1177__CLK
*896 ANTENNA__1178__CLK
*897 ANTENNA__1179__CLK
*898 ANTENNA__1180__CLK
*899 ANTENNA__1181__CLK
*900 ANTENNA__1182__CLK
*901 ANTENNA__1183__CLK
*902 ANTENNA__1184__CLK
*903 ANTENNA__1185__CLK
*904 ANTENNA__1186__CLK
*905 ANTENNA__1187__CLK
*906 ANTENNA__1188__CLK
*907 ANTENNA__1189__CLK
*908 ANTENNA__1190__CLK
*909 ANTENNA__1191__CLK
*910 ANTENNA__1192__CLK
*911 ANTENNA__1193__CLK
*912 ANTENNA__1194__CLK
*913 ANTENNA__1195__CLK
*914 ANTENNA__1196__CLK
*915 ANTENNA__1197__CLK
*916 ANTENNA__1198__CLK
*917 ANTENNA__1199__CLK
*918 ANTENNA__1200__CLK
*919 ANTENNA__1201__CLK
*920 ANTENNA__1202__CLK
*921 ANTENNA__1203__CLK
*922 ANTENNA__1204__CLK
*923 ANTENNA__1205__CLK
*924 ANTENNA__1206__CLK
*925 ANTENNA__1207__CLK
*926 ANTENNA__1208__CLK
*927 ANTENNA__1223__A
*928 ANTENNA__1229__A
*929 ANTENNA_clkbuf_0_clk_i_A
*930 ANTENNA_clkbuf_3_0__f_clk_i_A
*931 ANTENNA_clkbuf_3_1__f_clk_i_A
*932 ANTENNA_clkbuf_3_2__f_clk_i_A
*933 ANTENNA_clkbuf_3_3__f_clk_i_A
*934 ANTENNA_clkbuf_3_4__f_clk_i_A
*935 ANTENNA_clkbuf_3_5__f_clk_i_A
*936 ANTENNA_clkbuf_3_6__f_clk_i_A
*937 ANTENNA_clkbuf_3_7__f_clk_i_A
*938 ANTENNA_clkload1_A
*939 ANTENNA_clkload2_A
*940 ANTENNA_clkload4_A
*941 ANTENNA_clkload5_A
*942 ANTENNA_fanout58_A
*943 ANTENNA_input10_A
*944 ANTENNA_input11_A
*945 ANTENNA_input12_A
*946 ANTENNA_input13_A
*947 ANTENNA_input14_A
*948 ANTENNA_input15_A
*949 ANTENNA_input16_A
*950 ANTENNA_input17_A
*951 ANTENNA_input18_A
*952 ANTENNA_input19_A
*953 ANTENNA_input1_A
*954 ANTENNA_input2_A
*955 ANTENNA_input3_A
*956 ANTENNA_input4_A
*957 ANTENNA_input5_A
*958 ANTENNA_input6_A
*959 ANTENNA_input7_A
*960 ANTENNA_input8_A
*961 ANTENNA_input9_A
*962 ANTENNA_output29_A
*963 ANTENNA_output30_A
*964 ANTENNA_output33_A
*965 FILLER_0_0_138
*966 FILLER_0_0_142
*967 FILLER_0_0_144
*968 FILLER_0_0_172
*969 FILLER_0_0_174
*970 FILLER_0_0_2
*971 FILLER_0_0_200
*972 FILLER_0_0_237
*973 FILLER_0_0_246
*974 FILLER_0_0_250
*975 FILLER_0_0_254
*976 FILLER_0_0_261
*977 FILLER_0_0_265
*978 FILLER_0_0_269
*979 FILLER_0_0_280
*980 FILLER_0_0_284
*981 FILLER_0_0_293
*982 FILLER_0_0_301
*983 FILLER_0_0_303
*984 FILLER_0_0_314
*985 FILLER_0_0_316
*986 FILLER_0_0_36
*987 FILLER_0_0_6
*988 FILLER_0_0_70
*989 FILLER_0_0_8
*990 FILLER_0_10_107
*991 FILLER_0_10_143
*992 FILLER_0_10_147
*993 FILLER_0_10_18
*994 FILLER_0_10_191
*995 FILLER_0_10_195
*996 FILLER_0_10_2
*997 FILLER_0_10_211
*998 FILLER_0_10_232
*999 FILLER_0_10_236
*1000 FILLER_0_10_240
*1001 FILLER_0_10_244
*1002 FILLER_0_10_247
*1003 FILLER_0_10_263
*1004 FILLER_0_10_279
*1005 FILLER_0_10_295
*1006 FILLER_0_10_299
*1007 FILLER_0_10_301
*1008 FILLER_0_10_304
*1009 FILLER_0_10_312
*1010 FILLER_0_10_314
*1011 FILLER_0_10_317
*1012 FILLER_0_10_321
*1013 FILLER_0_10_34
*1014 FILLER_0_10_37
*1015 FILLER_0_10_39
*1016 FILLER_0_10_74
*1017 FILLER_0_11_119
*1018 FILLER_0_11_121
*1019 FILLER_0_11_138
*1020 FILLER_0_11_160
*1021 FILLER_0_11_162
*1022 FILLER_0_11_18
*1023 FILLER_0_11_190
*1024 FILLER_0_11_194
*1025 FILLER_0_11_198
*1026 FILLER_0_11_2
*1027 FILLER_0_11_206
*1028 FILLER_0_11_239
*1029 FILLER_0_11_277
*1030 FILLER_0_11_279
*1031 FILLER_0_11_282
*1032 FILLER_0_11_299
*1033 FILLER_0_11_301
*1034 FILLER_0_11_34
*1035 FILLER_0_11_50
*1036 FILLER_0_11_69
*1037 FILLER_0_11_79
*1038 FILLER_0_11_99
*1039 FILLER_0_12_107
*1040 FILLER_0_12_111
*1041 FILLER_0_12_113
*1042 FILLER_0_12_149
*1043 FILLER_0_12_153
*1044 FILLER_0_12_18
*1045 FILLER_0_12_2
*1046 FILLER_0_12_225
*1047 FILLER_0_12_233
*1048 FILLER_0_12_247
*1049 FILLER_0_12_249
*1050 FILLER_0_12_295
*1051 FILLER_0_12_329
*1052 FILLER_0_12_34
*1053 FILLER_0_12_37
*1054 FILLER_0_12_53
*1055 FILLER_0_12_59
*1056 FILLER_0_12_70
*1057 FILLER_0_13_115
*1058 FILLER_0_13_119
*1059 FILLER_0_13_121
*1060 FILLER_0_13_124
*1061 FILLER_0_13_128
*1062 FILLER_0_13_136
*1063 FILLER_0_13_142
*1064 FILLER_0_13_146
*1065 FILLER_0_13_18
*1066 FILLER_0_13_198
*1067 FILLER_0_13_2
*1068 FILLER_0_13_204
*1069 FILLER_0_13_208
*1070 FILLER_0_13_224
*1071 FILLER_0_13_228
*1072 FILLER_0_13_230
*1073 FILLER_0_13_258
*1074 FILLER_0_13_260
*1075 FILLER_0_13_276
*1076 FILLER_0_13_282
*1077 FILLER_0_13_328
*1078 FILLER_0_13_330
*1079 FILLER_0_13_34
*1080 FILLER_0_13_50
*1081 FILLER_0_13_72
*1082 FILLER_0_13_85
*1083 FILLER_0_13_87
*1084 FILLER_0_14_113
*1085 FILLER_0_14_117
*1086 FILLER_0_14_133
*1087 FILLER_0_14_137
*1088 FILLER_0_14_166
*1089 FILLER_0_14_174
*1090 FILLER_0_14_18
*1091 FILLER_0_14_2
*1092 FILLER_0_14_200
*1093 FILLER_0_14_204
*1094 FILLER_0_14_227
*1095 FILLER_0_14_231
*1096 FILLER_0_14_235
*1097 FILLER_0_14_237
*1098 FILLER_0_14_244
*1099 FILLER_0_14_247
*1100 FILLER_0_14_251
*1101 FILLER_0_14_267
*1102 FILLER_0_14_275
*1103 FILLER_0_14_277
*1104 FILLER_0_14_317
*1105 FILLER_0_14_321
*1106 FILLER_0_14_34
*1107 FILLER_0_14_37
*1108 FILLER_0_14_45
*1109 FILLER_0_14_49
*1110 FILLER_0_14_78
*1111 FILLER_0_14_93
*1112 FILLER_0_14_97
*1113 FILLER_0_15_100
*1114 FILLER_0_15_116
*1115 FILLER_0_15_120
*1116 FILLER_0_15_122
*1117 FILLER_0_15_125
*1118 FILLER_0_15_133
*1119 FILLER_0_15_137
*1120 FILLER_0_15_139
*1121 FILLER_0_15_169
*1122 FILLER_0_15_18
*1123 FILLER_0_15_199
*1124 FILLER_0_15_2
*1125 FILLER_0_15_203
*1126 FILLER_0_15_207
*1127 FILLER_0_15_209
*1128 FILLER_0_15_212
*1129 FILLER_0_15_218
*1130 FILLER_0_15_226
*1131 FILLER_0_15_230
*1132 FILLER_0_15_244
*1133 FILLER_0_15_272
*1134 FILLER_0_15_278
*1135 FILLER_0_15_286
*1136 FILLER_0_15_288
*1137 FILLER_0_15_313
*1138 FILLER_0_15_329
*1139 FILLER_0_15_34
*1140 FILLER_0_15_50
*1141 FILLER_0_15_66
*1142 FILLER_0_15_72
*1143 FILLER_0_15_88
*1144 FILLER_0_15_92
*1145 FILLER_0_16_102
*1146 FILLER_0_16_104
*1147 FILLER_0_16_131
*1148 FILLER_0_16_147
*1149 FILLER_0_16_18
*1150 FILLER_0_16_195
*1151 FILLER_0_16_199
*1152 FILLER_0_16_2
*1153 FILLER_0_16_217
*1154 FILLER_0_16_225
*1155 FILLER_0_16_229
*1156 FILLER_0_16_231
*1157 FILLER_0_16_271
*1158 FILLER_0_16_275
*1159 FILLER_0_16_279
*1160 FILLER_0_16_287
*1161 FILLER_0_16_297
*1162 FILLER_0_16_311
*1163 FILLER_0_16_324
*1164 FILLER_0_16_328
*1165 FILLER_0_16_330
*1166 FILLER_0_16_34
*1167 FILLER_0_16_37
*1168 FILLER_0_16_53
*1169 FILLER_0_16_69
*1170 FILLER_0_16_77
*1171 FILLER_0_16_81
*1172 FILLER_0_16_83
*1173 FILLER_0_16_90
*1174 FILLER_0_16_94
*1175 FILLER_0_17_109
*1176 FILLER_0_17_137
*1177 FILLER_0_17_139
*1178 FILLER_0_17_142
*1179 FILLER_0_17_146
*1180 FILLER_0_17_154
*1181 FILLER_0_17_157
*1182 FILLER_0_17_18
*1183 FILLER_0_17_191
*1184 FILLER_0_17_195
*1185 FILLER_0_17_2
*1186 FILLER_0_17_204
*1187 FILLER_0_17_208
*1188 FILLER_0_17_212
*1189 FILLER_0_17_214
*1190 FILLER_0_17_225
*1191 FILLER_0_17_233
*1192 FILLER_0_17_235
*1193 FILLER_0_17_263
*1194 FILLER_0_17_267
*1195 FILLER_0_17_275
*1196 FILLER_0_17_279
*1197 FILLER_0_17_282
*1198 FILLER_0_17_286
*1199 FILLER_0_17_323
*1200 FILLER_0_17_34
*1201 FILLER_0_17_50
*1202 FILLER_0_17_58
*1203 FILLER_0_17_62
*1204 FILLER_0_17_69
*1205 FILLER_0_17_72
*1206 FILLER_0_17_94
*1207 FILLER_0_17_96
*1208 FILLER_0_18_104
*1209 FILLER_0_18_120
*1210 FILLER_0_18_124
*1211 FILLER_0_18_140
*1212 FILLER_0_18_144
*1213 FILLER_0_18_151
*1214 FILLER_0_18_159
*1215 FILLER_0_18_163
*1216 FILLER_0_18_165
*1217 FILLER_0_18_174
*1218 FILLER_0_18_177
*1219 FILLER_0_18_18
*1220 FILLER_0_18_193
*1221 FILLER_0_18_197
*1222 FILLER_0_18_199
*1223 FILLER_0_18_2
*1224 FILLER_0_18_207
*1225 FILLER_0_18_231
*1226 FILLER_0_18_239
*1227 FILLER_0_18_251
*1228 FILLER_0_18_263
*1229 FILLER_0_18_267
*1230 FILLER_0_18_283
*1231 FILLER_0_18_287
*1232 FILLER_0_18_317
*1233 FILLER_0_18_321
*1234 FILLER_0_18_34
*1235 FILLER_0_18_37
*1236 FILLER_0_18_53
*1237 FILLER_0_18_75
*1238 FILLER_0_19_101
*1239 FILLER_0_19_110
*1240 FILLER_0_19_129
*1241 FILLER_0_19_137
*1242 FILLER_0_19_139
*1243 FILLER_0_19_18
*1244 FILLER_0_19_194
*1245 FILLER_0_19_2
*1246 FILLER_0_19_202
*1247 FILLER_0_19_212
*1248 FILLER_0_19_214
*1249 FILLER_0_19_239
*1250 FILLER_0_19_243
*1251 FILLER_0_19_245
*1252 FILLER_0_19_270
*1253 FILLER_0_19_278
*1254 FILLER_0_19_282
*1255 FILLER_0_19_286
*1256 FILLER_0_19_288
*1257 FILLER_0_19_304
*1258 FILLER_0_19_306
*1259 FILLER_0_19_311
*1260 FILLER_0_19_327
*1261 FILLER_0_19_34
*1262 FILLER_0_19_38
*1263 FILLER_0_19_66
*1264 FILLER_0_19_79
*1265 FILLER_0_19_81
*1266 FILLER_0_1_10
*1267 FILLER_0_1_127
*1268 FILLER_0_1_149
*1269 FILLER_0_1_2
*1270 FILLER_0_1_207
*1271 FILLER_0_1_209
*1272 FILLER_0_1_212
*1273 FILLER_0_1_227
*1274 FILLER_0_1_273
*1275 FILLER_0_1_277
*1276 FILLER_0_1_279
*1277 FILLER_0_1_312
*1278 FILLER_0_1_320
*1279 FILLER_0_1_324
*1280 FILLER_0_1_327
*1281 FILLER_0_1_72
*1282 FILLER_0_1_74
*1283 FILLER_0_20_10
*1284 FILLER_0_20_14
*1285 FILLER_0_20_144
*1286 FILLER_0_20_148
*1287 FILLER_0_20_152
*1288 FILLER_0_20_16
*1289 FILLER_0_20_199
*1290 FILLER_0_20_2
*1291 FILLER_0_20_236
*1292 FILLER_0_20_244
*1293 FILLER_0_20_247
*1294 FILLER_0_20_274
*1295 FILLER_0_20_278
*1296 FILLER_0_20_294
*1297 FILLER_0_20_310
*1298 FILLER_0_20_314
*1299 FILLER_0_20_317
*1300 FILLER_0_20_321
*1301 FILLER_0_20_55
*1302 FILLER_0_20_86
*1303 FILLER_0_20_90
*1304 FILLER_0_20_92
*1305 FILLER_0_21_122
*1306 FILLER_0_21_126
*1307 FILLER_0_21_130
*1308 FILLER_0_21_138
*1309 FILLER_0_21_142
*1310 FILLER_0_21_158
*1311 FILLER_0_21_162
*1312 FILLER_0_21_2
*1313 FILLER_0_21_209
*1314 FILLER_0_21_216
*1315 FILLER_0_21_220
*1316 FILLER_0_21_236
*1317 FILLER_0_21_244
*1318 FILLER_0_21_246
*1319 FILLER_0_21_275
*1320 FILLER_0_21_279
*1321 FILLER_0_21_282
*1322 FILLER_0_21_296
*1323 FILLER_0_21_300
*1324 FILLER_0_21_64
*1325 FILLER_0_21_68
*1326 FILLER_0_21_76
*1327 FILLER_0_21_92
*1328 FILLER_0_21_94
*1329 FILLER_0_22_119
*1330 FILLER_0_22_123
*1331 FILLER_0_22_139
*1332 FILLER_0_22_155
*1333 FILLER_0_22_157
*1334 FILLER_0_22_2
*1335 FILLER_0_22_212
*1336 FILLER_0_22_227
*1337 FILLER_0_22_231
*1338 FILLER_0_22_239
*1339 FILLER_0_22_24
*1340 FILLER_0_22_243
*1341 FILLER_0_22_247
*1342 FILLER_0_22_255
*1343 FILLER_0_22_257
*1344 FILLER_0_22_281
*1345 FILLER_0_22_285
*1346 FILLER_0_22_287
*1347 FILLER_0_22_329
*1348 FILLER_0_22_79
*1349 FILLER_0_23_118
*1350 FILLER_0_23_126
*1351 FILLER_0_23_128
*1352 FILLER_0_23_131
*1353 FILLER_0_23_139
*1354 FILLER_0_23_142
*1355 FILLER_0_23_154
*1356 FILLER_0_23_162
*1357 FILLER_0_23_166
*1358 FILLER_0_23_174
*1359 FILLER_0_23_178
*1360 FILLER_0_23_180
*1361 FILLER_0_23_187
*1362 FILLER_0_23_195
*1363 FILLER_0_23_199
*1364 FILLER_0_23_2
*1365 FILLER_0_23_201
*1366 FILLER_0_23_204
*1367 FILLER_0_23_208
*1368 FILLER_0_23_219
*1369 FILLER_0_23_248
*1370 FILLER_0_23_252
*1371 FILLER_0_23_265
*1372 FILLER_0_23_282
*1373 FILLER_0_23_327
*1374 FILLER_0_23_45
*1375 FILLER_0_23_49
*1376 FILLER_0_23_57
*1377 FILLER_0_23_61
*1378 FILLER_0_23_64
*1379 FILLER_0_23_68
*1380 FILLER_0_23_72
*1381 FILLER_0_23_80
*1382 FILLER_0_23_84
*1383 FILLER_0_23_86
*1384 FILLER_0_24_101
*1385 FILLER_0_24_107
*1386 FILLER_0_24_111
*1387 FILLER_0_24_158
*1388 FILLER_0_24_160
*1389 FILLER_0_24_169
*1390 FILLER_0_24_173
*1391 FILLER_0_24_177
*1392 FILLER_0_24_193
*1393 FILLER_0_24_2
*1394 FILLER_0_24_202
*1395 FILLER_0_24_210
*1396 FILLER_0_24_214
*1397 FILLER_0_24_227
*1398 FILLER_0_24_229
*1399 FILLER_0_24_243
*1400 FILLER_0_24_254
*1401 FILLER_0_24_304
*1402 FILLER_0_24_312
*1403 FILLER_0_24_314
*1404 FILLER_0_24_317
*1405 FILLER_0_24_325
*1406 FILLER_0_24_37
*1407 FILLER_0_24_41
*1408 FILLER_0_24_49
*1409 FILLER_0_24_89
*1410 FILLER_0_24_93
*1411 FILLER_0_25_125
*1412 FILLER_0_25_129
*1413 FILLER_0_25_133
*1414 FILLER_0_25_142
*1415 FILLER_0_25_146
*1416 FILLER_0_25_161
*1417 FILLER_0_25_163
*1418 FILLER_0_25_176
*1419 FILLER_0_25_18
*1420 FILLER_0_25_184
*1421 FILLER_0_25_193
*1422 FILLER_0_25_2
*1423 FILLER_0_25_209
*1424 FILLER_0_25_22
*1425 FILLER_0_25_225
*1426 FILLER_0_25_241
*1427 FILLER_0_25_279
*1428 FILLER_0_25_282
*1429 FILLER_0_25_290
*1430 FILLER_0_25_294
*1431 FILLER_0_25_30
*1432 FILLER_0_25_308
*1433 FILLER_0_25_310
*1434 FILLER_0_25_323
*1435 FILLER_0_25_34
*1436 FILLER_0_25_42
*1437 FILLER_0_25_90
*1438 FILLER_0_26_10
*1439 FILLER_0_26_125
*1440 FILLER_0_26_133
*1441 FILLER_0_26_14
*1442 FILLER_0_26_172
*1443 FILLER_0_26_174
*1444 FILLER_0_26_2
*1445 FILLER_0_26_204
*1446 FILLER_0_26_208
*1447 FILLER_0_26_218
*1448 FILLER_0_26_222
*1449 FILLER_0_26_247
*1450 FILLER_0_26_251
*1451 FILLER_0_26_254
*1452 FILLER_0_26_279
*1453 FILLER_0_26_295
*1454 FILLER_0_26_329
*1455 FILLER_0_26_33
*1456 FILLER_0_26_43
*1457 FILLER_0_26_47
*1458 FILLER_0_26_49
*1459 FILLER_0_26_77
*1460 FILLER_0_26_81
*1461 FILLER_0_26_83
*1462 FILLER_0_26_86
*1463 FILLER_0_26_92
*1464 FILLER_0_27_102
*1465 FILLER_0_27_106
*1466 FILLER_0_27_126
*1467 FILLER_0_27_134
*1468 FILLER_0_27_138
*1469 FILLER_0_27_142
*1470 FILLER_0_27_2
*1471 FILLER_0_27_205
*1472 FILLER_0_27_209
*1473 FILLER_0_27_212
*1474 FILLER_0_27_228
*1475 FILLER_0_27_244
*1476 FILLER_0_27_252
*1477 FILLER_0_27_279
*1478 FILLER_0_27_282
*1479 FILLER_0_27_292
*1480 FILLER_0_27_327
*1481 FILLER_0_27_72
*1482 FILLER_0_27_88
*1483 FILLER_0_28_104
*1484 FILLER_0_28_132
*1485 FILLER_0_28_148
*1486 FILLER_0_28_177
*1487 FILLER_0_28_181
*1488 FILLER_0_28_197
*1489 FILLER_0_28_2
*1490 FILLER_0_28_218
*1491 FILLER_0_28_222
*1492 FILLER_0_28_226
*1493 FILLER_0_28_230
*1494 FILLER_0_28_232
*1495 FILLER_0_28_24
*1496 FILLER_0_28_243
*1497 FILLER_0_28_247
*1498 FILLER_0_28_297
*1499 FILLER_0_28_301
*1500 FILLER_0_28_313
*1501 FILLER_0_28_329
*1502 FILLER_0_28_37
*1503 FILLER_0_28_76
*1504 FILLER_0_28_80
*1505 FILLER_0_29_10
*1506 FILLER_0_29_119
*1507 FILLER_0_29_12
*1508 FILLER_0_29_123
*1509 FILLER_0_29_131
*1510 FILLER_0_29_133
*1511 FILLER_0_29_148
*1512 FILLER_0_29_156
*1513 FILLER_0_29_172
*1514 FILLER_0_29_181
*1515 FILLER_0_29_197
*1516 FILLER_0_29_2
*1517 FILLER_0_29_201
*1518 FILLER_0_29_203
*1519 FILLER_0_29_228
*1520 FILLER_0_29_232
*1521 FILLER_0_29_236
*1522 FILLER_0_29_238
*1523 FILLER_0_29_241
*1524 FILLER_0_29_25
*1525 FILLER_0_29_27
*1526 FILLER_0_29_275
*1527 FILLER_0_29_279
*1528 FILLER_0_29_282
*1529 FILLER_0_29_286
*1530 FILLER_0_29_55
*1531 FILLER_0_29_59
*1532 FILLER_0_29_67
*1533 FILLER_0_29_69
*1534 FILLER_0_29_72
*1535 FILLER_0_29_76
*1536 FILLER_0_29_78
*1537 FILLER_0_29_86
*1538 FILLER_0_29_90
*1539 FILLER_0_2_107
*1540 FILLER_0_2_153
*1541 FILLER_0_2_177
*1542 FILLER_0_2_181
*1543 FILLER_0_2_200
*1544 FILLER_0_2_208
*1545 FILLER_0_2_236
*1546 FILLER_0_2_244
*1547 FILLER_0_2_247
*1548 FILLER_0_2_27
*1549 FILLER_0_2_309
*1550 FILLER_0_2_313
*1551 FILLER_0_2_317
*1552 FILLER_0_2_321
*1553 FILLER_0_2_37
*1554 FILLER_0_2_41
*1555 FILLER_0_30_100
*1556 FILLER_0_30_104
*1557 FILLER_0_30_107
*1558 FILLER_0_30_135
*1559 FILLER_0_30_149
*1560 FILLER_0_30_151
*1561 FILLER_0_30_169
*1562 FILLER_0_30_18
*1563 FILLER_0_30_184
*1564 FILLER_0_30_192
*1565 FILLER_0_30_196
*1566 FILLER_0_30_198
*1567 FILLER_0_30_2
*1568 FILLER_0_30_22
*1569 FILLER_0_30_234
*1570 FILLER_0_30_238
*1571 FILLER_0_30_24
*1572 FILLER_0_30_242
*1573 FILLER_0_30_244
*1574 FILLER_0_30_247
*1575 FILLER_0_30_251
*1576 FILLER_0_30_255
*1577 FILLER_0_30_257
*1578 FILLER_0_30_27
*1579 FILLER_0_30_307
*1580 FILLER_0_30_311
*1581 FILLER_0_30_329
*1582 FILLER_0_30_37
*1583 FILLER_0_30_53
*1584 FILLER_0_30_57
*1585 FILLER_0_31_10
*1586 FILLER_0_31_115
*1587 FILLER_0_31_117
*1588 FILLER_0_31_12
*1589 FILLER_0_31_124
*1590 FILLER_0_31_132
*1591 FILLER_0_31_164
*1592 FILLER_0_31_183
*1593 FILLER_0_31_187
*1594 FILLER_0_31_195
*1595 FILLER_0_31_199
*1596 FILLER_0_31_2
*1597 FILLER_0_31_20
*1598 FILLER_0_31_24
*1599 FILLER_0_31_246
*1600 FILLER_0_31_250
*1601 FILLER_0_31_26
*1602 FILLER_0_31_267
*1603 FILLER_0_31_294
*1604 FILLER_0_31_45
*1605 FILLER_0_31_53
*1606 FILLER_0_31_67
*1607 FILLER_0_31_69
*1608 FILLER_0_31_72
*1609 FILLER_0_32_103
*1610 FILLER_0_32_107
*1611 FILLER_0_32_111
*1612 FILLER_0_32_127
*1613 FILLER_0_32_151
*1614 FILLER_0_32_177
*1615 FILLER_0_32_195
*1616 FILLER_0_32_199
*1617 FILLER_0_32_2
*1618 FILLER_0_32_203
*1619 FILLER_0_32_205
*1620 FILLER_0_32_247
*1621 FILLER_0_32_279
*1622 FILLER_0_32_288
*1623 FILLER_0_32_329
*1624 FILLER_0_32_37
*1625 FILLER_0_32_41
*1626 FILLER_0_32_45
*1627 FILLER_0_32_6
*1628 FILLER_0_32_72
*1629 FILLER_0_32_76
*1630 FILLER_0_32_99
*1631 FILLER_0_33_100
*1632 FILLER_0_33_102
*1633 FILLER_0_33_115
*1634 FILLER_0_33_130
*1635 FILLER_0_33_138
*1636 FILLER_0_33_142
*1637 FILLER_0_33_146
*1638 FILLER_0_33_152
*1639 FILLER_0_33_156
*1640 FILLER_0_33_193
*1641 FILLER_0_33_2
*1642 FILLER_0_33_203
*1643 FILLER_0_33_207
*1644 FILLER_0_33_212
*1645 FILLER_0_33_214
*1646 FILLER_0_33_242
*1647 FILLER_0_33_277
*1648 FILLER_0_33_279
*1649 FILLER_0_33_282
*1650 FILLER_0_33_286
*1651 FILLER_0_33_330
*1652 FILLER_0_33_40
*1653 FILLER_0_33_48
*1654 FILLER_0_33_50
*1655 FILLER_0_33_58
*1656 FILLER_0_33_66
*1657 FILLER_0_33_91
*1658 FILLER_0_33_93
*1659 FILLER_0_34_111
*1660 FILLER_0_34_136
*1661 FILLER_0_34_142
*1662 FILLER_0_34_144
*1663 FILLER_0_34_151
*1664 FILLER_0_34_155
*1665 FILLER_0_34_157
*1666 FILLER_0_34_171
*1667 FILLER_0_34_194
*1668 FILLER_0_34_198
*1669 FILLER_0_34_227
*1670 FILLER_0_34_231
*1671 FILLER_0_34_247
*1672 FILLER_0_34_249
*1673 FILLER_0_34_307
*1674 FILLER_0_34_311
*1675 FILLER_0_34_32
*1676 FILLER_0_34_329
*1677 FILLER_0_34_34
*1678 FILLER_0_34_37
*1679 FILLER_0_34_41
*1680 FILLER_0_34_44
*1681 FILLER_0_34_87
*1682 FILLER_0_34_91
*1683 FILLER_0_35_102