*SPEF "ieee 1481-1999"
*DESIGN "wrapped_ay8913"
*DATE "11:11:11 Fri 11 11, 1111"
*VENDOR "OpenRCX"
*PROGRAM "Parallel Extraction"
*VERSION "1.0"
*DESIGN_FLOW "NAME_SCOPE LOCAL" "PIN_CAP NONE"
*DIVIDER /
*DELIMITER :
*BUS_DELIMITER []
*T_UNIT 1 NS
*C_UNIT 1 PF
*R_UNIT 1 OHM
*L_UNIT 1 HENRY

*NAME_MAP
*1 custom_settings[0]
*2 custom_settings[1]
*3 io_in_1[0]
*4 io_in_1[1]
*5 io_in_1[2]
*6 io_in_1[3]
*7 io_in_1[4]
*8 io_in_1[5]
*9 io_in_1[6]
*10 io_in_1[7]
*11 io_in_2[0]
*12 io_in_2[1]
*13 net23
*14 io_out[10]
*15 io_out[11]
*16 net31
*17 net32
*18 net33
*19 net34
*20 net35
*21 io_out[17]
*22 io_out[18]
*23 io_out[19]
*24 net24
*25 io_out[20]
*26 io_out[21]
*27 net41
*28 net36
*29 net37
*30 net38
*31 net39
*32 net40
*33 net25
*34 net26
*35 net27
*36 net28
*37 net29
*38 net30
*39 io_out[8]
*40 io_out[9]
*41 rst_n
*44 wb_clk_i
*45 _0000_
*46 _0001_
*47 _0002_
*48 _0003_
*49 _0004_
*50 _0005_
*51 _0006_
*52 _0007_
*53 _0008_
*54 _0009_
*55 _0010_
*56 _0011_
*57 _0012_
*58 _0013_
*59 _0014_
*60 _0015_
*61 _0016_
*62 _0017_
*63 _0018_
*64 _0019_
*65 _0020_
*66 _0021_
*67 _0022_
*68 _0023_
*69 _0024_
*70 _0025_
*71 _0026_
*72 _0027_
*73 _0028_
*74 _0029_
*75 _0030_
*76 _0031_
*77 _0032_
*78 _0033_
*79 _0034_
*80 _0035_
*81 _0036_
*82 _0037_
*83 _0038_
*84 _0039_
*85 _0040_
*86 _0041_
*87 _0042_
*88 _0043_
*89 _0044_
*90 _0045_
*91 _0046_
*92 _0047_
*93 _0048_
*94 _0049_
*95 _0050_
*96 _0051_
*97 _0052_
*98 _0053_
*99 _0054_
*100 _0055_
*101 _0056_
*102 _0057_
*103 _0058_
*104 _0059_
*105 _0060_
*106 _0061_
*107 _0062_
*108 _0063_
*109 _0064_
*110 _0065_
*111 _0066_
*112 _0067_
*113 _0068_
*114 _0069_
*115 _0070_
*116 _0071_
*117 _0072_
*118 _0073_
*119 _0074_
*120 _0075_
*121 _0076_
*122 _0077_
*123 _0078_
*124 _0079_
*125 _0080_
*126 _0081_
*127 _0082_
*128 _0083_
*129 _0084_
*130 _0085_
*131 _0086_
*132 _0087_
*133 _0088_
*134 _0089_
*135 _0090_
*136 _0091_
*137 _0092_
*138 _0093_
*139 _0094_
*140 _0095_
*141 _0096_
*142 _0097_
*143 _0098_
*144 _0099_
*145 _0100_
*146 _0101_
*147 _0102_
*148 _0103_
*149 _0104_
*150 _0105_
*151 _0106_
*152 _0107_
*153 _0108_
*154 _0109_
*155 _0110_
*156 _0111_
*157 _0112_
*158 _0113_
*159 _0114_
*160 _0115_
*161 _0116_
*162 _0117_
*163 _0118_
*164 _0119_
*165 _0120_
*166 _0121_
*167 _0122_
*168 _0123_
*169 _0124_
*170 _0125_
*171 _0126_
*172 _0127_
*173 _0128_
*174 _0129_
*175 _0130_
*176 _0131_
*177 _0132_
*178 _0133_
*179 _0134_
*180 _0135_
*181 _0136_
*182 _0137_
*183 _0138_
*184 _0139_
*185 _0140_
*186 _0141_
*187 _0142_
*188 _0143_
*189 _0144_
*190 _0145_
*191 _0146_
*192 _0147_
*193 _0148_
*194 _0149_
*195 _0150_
*196 _0151_
*197 _0152_
*198 _0153_
*199 _0154_
*200 _0155_
*201 _0156_
*202 _0157_
*203 _0158_
*204 _0159_
*205 _0160_
*206 _0161_
*207 _0162_
*208 _0163_
*209 _0164_
*210 _0165_
*211 _0166_
*212 _0167_
*213 _0168_
*214 _0169_
*215 _0170_
*216 _0171_
*217 _0172_
*218 _0173_
*219 _0174_
*220 _0175_
*221 _0176_
*222 _0177_
*223 _0178_
*224 _0179_
*225 _0180_
*226 _0181_
*227 _0182_
*228 _0183_
*229 _0184_
*230 _0185_
*231 _0186_
*232 _0187_
*233 _0188_
*234 _0189_
*235 _0190_
*236 _0191_
*237 _0192_
*238 _0193_
*239 _0194_
*240 _0195_
*241 _0196_
*242 _0197_
*243 _0198_
*244 _0199_
*245 _0200_
*246 _0201_
*247 _0202_
*248 _0203_
*249 _0204_
*250 _0205_
*251 _0206_
*252 _0207_
*253 _0208_
*254 _0209_
*255 _0210_
*256 _0211_
*257 _0212_
*258 _0213_
*259 _0214_
*260 _0215_
*261 _0216_
*262 _0217_
*263 _0218_
*264 _0219_
*265 _0220_
*266 _0221_
*267 _0222_
*268 _0223_
*269 _0224_
*270 _0225_
*271 _0226_
*272 _0227_
*273 _0228_
*274 _0229_
*275 _0230_
*276 _0231_
*277 _0232_
*278 _0233_
*279 _0234_
*280 _0235_
*281 _0236_
*282 _0237_
*283 _0238_
*284 _0239_
*285 _0240_
*286 _0241_
*287 _0242_
*288 _0243_
*289 _0244_
*290 _0245_
*291 _0246_
*292 _0247_
*293 _0248_
*294 _0249_
*295 _0250_
*296 _0251_
*297 _0252_
*298 _0253_
*299 _0254_
*300 _0255_
*301 _0256_
*302 _0257_
*303 _0258_
*304 _0259_
*305 _0260_
*306 _0261_
*307 _0262_
*308 _0263_
*309 _0264_
*310 _0265_
*311 _0266_
*312 _0267_
*313 _0268_
*314 _0269_
*315 _0270_
*316 _0271_
*317 _0272_
*318 _0273_
*319 _0274_
*320 _0275_
*321 _0276_
*322 _0277_
*323 _0278_
*324 _0279_
*325 _0280_
*326 _0281_
*327 _0282_
*328 _0283_
*329 _0284_
*330 _0285_
*331 _0286_
*332 _0287_
*333 _0288_
*334 _0289_
*335 _0290_
*336 _0291_
*337 _0292_
*338 _0293_
*339 _0294_
*340 _0295_
*341 _0296_
*342 _0297_
*343 _0298_
*344 _0299_
*345 _0300_
*346 _0301_
*347 _0302_
*348 _0303_
*349 _0304_
*350 _0305_
*351 _0306_
*352 _0307_
*353 _0308_
*354 _0309_
*355 _0310_
*356 _0311_
*357 _0312_
*358 _0313_
*359 _0314_
*360 _0315_
*361 _0316_
*362 _0317_
*363 _0318_
*364 _0319_
*365 _0320_
*366 _0321_
*367 _0322_
*368 _0323_
*369 _0324_
*370 _0325_
*371 _0326_
*372 _0327_
*373 _0328_
*374 _0329_
*375 _0330_
*376 _0331_
*377 _0332_
*378 _0333_
*379 _0334_
*380 _0335_
*381 _0336_
*382 _0337_
*383 _0338_
*384 _0339_
*385 _0340_
*386 _0341_
*387 _0342_
*388 _0343_
*389 _0344_
*390 _0345_
*391 _0346_
*392 _0347_
*393 _0348_
*394 _0349_
*395 _0350_
*396 _0351_
*397 _0352_
*398 _0353_
*399 _0354_
*400 _0355_
*401 _0356_
*402 _0357_
*403 _0358_
*404 _0359_
*405 _0360_
*406 _0361_
*407 _0362_
*408 _0363_
*409 _0364_
*410 _0365_
*411 _0366_
*412 _0367_
*413 _0368_
*414 _0369_
*415 _0370_
*416 _0371_
*417 _0372_
*418 _0373_
*419 _0374_
*420 _0375_
*421 _0376_
*422 _0377_
*423 _0378_
*424 _0379_
*425 _0380_
*426 _0381_
*427 _0382_
*428 _0383_
*429 _0384_
*430 _0385_
*431 _0386_
*432 _0387_
*433 _0388_
*434 _0389_
*435 _0390_
*436 _0391_
*437 _0392_
*438 _0393_
*439 _0394_
*440 _0395_
*441 _0396_
*442 _0397_
*443 _0398_
*444 _0399_
*445 _0400_
*446 _0401_
*447 _0402_
*448 _0403_
*449 _0404_
*450 _0405_
*451 _0406_
*452 _0407_
*453 _0408_
*454 _0409_
*455 _0410_
*456 _0411_
*457 _0412_
*458 _0413_
*459 _0414_
*460 _0415_
*461 _0416_
*462 _0417_
*463 _0418_
*464 _0419_
*465 _0420_
*466 _0421_
*467 _0422_
*468 _0423_
*469 _0424_
*470 _0425_
*471 _0426_
*472 _0427_
*473 _0428_
*474 _0429_
*475 _0430_
*476 _0431_
*477 _0432_
*478 _0433_
*479 _0434_
*480 _0435_
*481 _0436_
*482 _0437_
*483 _0438_
*484 _0439_
*485 _0440_
*486 _0441_
*487 _0442_
*488 _0443_
*489 _0444_
*490 _0445_
*491 _0446_
*492 _0447_
*493 _0448_
*494 _0449_
*495 _0450_
*496 _0451_
*497 _0452_
*498 _0453_
*499 _0454_
*500 _0455_
*501 _0456_
*502 _0457_
*503 _0458_
*504 _0459_
*505 _0460_
*506 _0461_
*507 _0462_
*508 _0463_
*509 _0464_
*510 _0465_
*511 _0466_
*512 _0467_
*513 _0468_
*514 _0469_
*515 _0470_
*516 _0471_
*517 _0472_
*518 _0473_
*519 _0474_
*520 _0475_
*521 _0476_
*522 _0477_
*523 _0478_
*524 _0479_
*525 _0480_
*526 _0481_
*527 _0482_
*528 _0483_
*529 _0484_
*530 _0485_
*531 _0486_
*532 _0487_
*533 _0488_
*534 _0489_
*535 _0490_
*536 _0491_
*537 _0492_
*538 _0493_
*539 _0494_
*540 _0495_
*541 _0496_
*542 _0497_
*543 _0498_
*544 _0499_
*545 _0500_
*546 _0501_
*547 _0502_
*548 _0503_
*549 _0504_
*550 _0505_
*551 _0506_
*552 _0507_
*553 _0508_
*554 _0509_
*555 _0510_
*556 _0511_
*557 _0512_
*558 _0513_
*559 _0514_
*560 _0515_
*561 _0516_
*562 _0517_
*563 _0518_
*564 _0519_
*565 _0520_
*566 _0521_
*567 _0522_
*568 _0523_
*569 _0524_
*570 _0525_
*571 _0526_
*572 _0527_
*573 _0528_
*574 _0529_
*575 _0530_
*576 _0531_
*577 _0532_
*578 _0533_
*579 _0534_
*580 _0535_
*581 _0536_
*582 _0537_
*583 _0538_
*584 _0539_
*585 _0540_
*586 _0541_
*587 _0542_
*588 _0543_
*589 _0544_
*590 _0545_
*591 _0546_
*592 _0547_
*593 _0548_
*594 _0549_
*595 _0550_
*596 _0551_
*597 _0552_
*598 _0553_
*599 _0554_
*600 _0555_
*601 _0556_
*602 _0557_
*603 _0558_
*604 _0559_
*605 _0560_
*606 _0561_
*607 _0562_
*608 _0563_
*609 _0564_
*610 _0565_
*611 _0566_
*612 _0567_
*613 _0568_
*614 _0569_
*615 _0570_
*616 _0571_
*617 _0572_
*618 _0573_
*619 _0574_
*620 _0575_
*621 _0576_
*622 _0577_
*623 _0578_
*624 _0579_
*625 _0580_
*626 _0581_
*627 _0582_
*628 _0583_
*629 _0584_
*630 _0585_
*631 _0586_
*632 _0587_
*633 _0588_
*634 _0589_
*635 _0590_
*636 _0591_
*637 _0592_
*638 _0593_
*639 _0594_
*640 _0595_
*641 _0596_
*642 _0597_
*643 _0598_
*644 _0599_
*645 _0600_
*646 _0601_
*647 _0602_
*648 _0603_
*649 _0604_
*650 _0605_
*651 _0606_
*652 _0607_
*653 _0608_
*654 _0609_
*655 _0610_
*656 _0611_
*657 _0612_
*658 _0613_
*659 _0614_
*660 _0615_
*661 _0616_
*662 _0617_
*663 _0618_
*664 _0619_
*665 _0620_
*666 _0621_
*667 _0622_
*668 _0623_
*669 _0624_
*670 _0625_
*671 _0626_
*672 _0627_
*673 _0628_
*674 _0629_
*675 _0630_
*676 _0631_
*677 _0632_
*678 _0633_
*679 _0634_
*680 _0635_
*681 _0636_
*682 _0637_
*683 _0638_
*684 _0639_
*685 _0640_
*686 _0641_
*687 _0642_
*688 _0643_
*689 _0644_
*690 _0645_
*691 _0646_
*692 _0647_
*693 _0648_
*694 _0649_
*695 _0650_
*696 _0651_
*697 _0652_
*698 _0653_
*699 _0654_
*700 _0655_
*701 _0656_
*702 _0657_
*703 _0658_
*704 _0659_
*705 _0660_
*706 _0661_
*707 _0662_
*708 _0663_
*709 _0664_
*710 _0665_
*711 _0666_
*712 _0667_
*713 _0668_
*714 _0669_
*715 _0670_
*716 _0671_
*717 _0672_
*718 _0673_
*719 _0674_
*720 _0675_
*721 _0676_
*722 _0677_
*723 _0678_
*724 _0679_
*725 _0680_
*726 _0681_
*727 _0682_
*728 _0683_
*729 _0684_
*730 _0685_
*731 _0686_
*732 _0687_
*733 _0688_
*734 _0689_
*735 _0690_
*736 _0691_
*737 _0692_
*738 _0693_
*739 _0694_
*740 _0695_
*741 _0696_
*742 _0697_
*743 _0698_
*744 _0699_
*745 _0700_
*746 _0701_
*747 _0702_
*748 _0703_
*749 _0704_
*750 _0705_
*751 _0706_
*752 _0707_
*753 _0708_
*754 _0709_
*755 _0710_
*756 _0711_
*757 _0712_
*758 _0713_
*759 _0714_
*760 _0715_
*761 _0716_
*762 _0717_
*763 _0718_
*764 _0719_
*765 _0720_
*766 _0721_
*767 _0722_
*768 _0723_
*769 _0724_
*770 _0725_
*771 _0726_
*772 _0727_
*773 _0728_
*774 _0729_
*775 _0730_
*776 _0731_
*777 _0732_
*778 _0733_
*779 _0734_
*780 _0735_
*781 _0736_
*782 _0737_
*783 _0738_
*784 _0739_
*785 _0740_
*786 _0741_
*787 _0742_
*788 _0743_
*789 _0744_
*790 _0745_
*791 _0746_
*792 _0747_
*793 _0748_
*794 _0749_
*795 _0750_
*796 _0751_
*797 _0752_
*798 _0753_
*799 _0754_
*800 _0755_
*801 _0756_
*802 _0757_
*803 _0758_
*804 _0759_
*805 _0760_
*806 _0761_
*807 _0762_
*808 _0763_
*809 _0764_
*810 _0765_
*811 _0766_
*812 _0767_
*813 _0768_
*814 _0769_
*815 _0770_
*816 _0771_
*817 _0772_
*818 _0773_
*819 _0774_
*820 _0775_
*821 _0776_
*822 _0777_
*823 _0778_
*824 _0779_
*825 _0780_
*826 _0781_
*827 _0782_
*828 _0783_
*829 _0784_
*830 _0785_
*831 _0786_
*832 _0787_
*833 _0788_
*834 _0789_
*835 _0790_
*836 _0791_
*837 _0792_
*838 _0793_
*839 _0794_
*840 _0795_
*841 _0796_
*842 _0797_
*843 _0798_
*844 _0799_
*845 _0800_
*846 _0801_
*847 _0802_
*848 _0803_
*849 _0804_
*850 _0805_
*851 _0806_
*852 _0807_
*853 _0808_
*854 _0809_
*855 _0810_
*856 _0811_
*857 _0812_
*858 _0813_
*859 _0814_
*860 _0815_
*861 _0816_
*862 _0817_
*863 _0818_
*864 _0819_
*865 _0820_
*866 _0821_
*867 _0822_
*868 _0823_
*869 _0824_
*870 _0825_
*871 _0826_
*872 _0827_
*873 _0828_
*874 _0829_
*875 _0830_
*876 _0831_
*877 _0832_
*878 _0833_
*879 _0834_
*880 _0835_
*881 _0836_
*882 _0837_
*883 _0838_
*884 _0839_
*885 _0840_
*886 _0841_
*887 _0842_
*888 _0843_
*889 _0844_
*890 _0845_
*891 _0846_
*892 _0847_
*893 _0848_
*894 _0849_
*895 _0850_
*896 _0851_
*897 _0852_
*898 _0853_
*899 _0854_
*900 _0855_
*901 _0856_
*902 _0857_
*903 _0858_
*904 _0859_
*905 _0860_
*906 _0861_
*907 _0862_
*908 _0863_
*909 _0864_
*910 _0865_
*911 _0866_
*912 _0867_
*913 _0868_
*914 _0869_
*915 _0870_
*916 _0871_
*917 _0872_
*918 _0873_
*919 _0874_
*920 _0875_
*921 _0876_
*922 _0877_
*923 _0878_
*924 _0879_
*925 _0880_
*926 _0881_
*927 _0882_
*928 _0883_
*929 _0884_
*930 _0885_
*931 _0886_
*932 _0887_
*933 _0888_
*934 _0889_
*935 _0890_
*936 _0891_
*937 _0892_
*938 _0893_
*939 _0894_
*940 _0895_
*941 _0896_
*942 _0897_
*943 _0898_
*944 _0899_
*945 _0900_
*946 _0901_
*947 _0902_
*948 _0903_
*949 _0904_
*950 _0905_
*951 _0906_
*952 _0907_
*953 _0908_
*954 _0909_
*955 _0910_
*956 _0911_
*957 _0912_
*958 _0913_
*959 _0914_
*960 _0915_
*961 _0916_
*962 _0917_
*963 _0918_
*964 _0919_
*965 _0920_
*966 _0921_
*967 _0922_
*968 _0923_
*969 _0924_
*970 _0925_
*971 _0926_
*972 _0927_
*973 _0928_
*974 _0929_
*975 _0930_
*976 _0931_
*977 _0932_
*978 _0933_
*979 _0934_
*980 _0935_
*981 _0936_
*982 _0937_
*983 _0938_
*984 _0939_
*985 _0940_
*986 _0941_
*987 _0942_
*988 _0943_
*989 _0944_
*990 _0945_
*991 _0946_
*992 _0947_
*993 _0948_
*994 _0949_
*995 _0950_
*996 _0951_
*997 _0952_
*998 _0953_
*999 _0954_
*1000 _0955_
*1001 _0956_
*1002 _0957_
*1003 _0958_
*1004 _0959_
*1005 _0960_
*1006 _0961_
*1007 _0962_
*1008 _0963_
*1009 _0964_
*1010 _0965_
*1011 _0966_
*1012 _0967_
*1013 _0968_
*1014 _0969_
*1015 _0970_
*1016 _0971_
*1017 _0972_
*1018 _0973_
*1019 _0974_
*1020 _0975_
*1021 _0976_
*1022 _0977_
*1023 _0978_
*1024 _0979_
*1025 _0980_
*1026 _0981_
*1027 _0982_
*1028 _0983_
*1029 _0984_
*1030 _0985_
*1031 _0986_
*1032 _0987_
*1033 _0988_
*1034 _0989_
*1035 _0990_
*1036 _0991_
*1037 _0992_
*1038 _0993_
*1039 _0994_
*1040 _0995_
*1041 _0996_
*1042 _0997_
*1043 _0998_
*1044 _0999_
*1045 _1000_
*1046 _1001_
*1047 _1002_
*1048 _1003_
*1049 _1004_
*1050 _1005_
*1051 _1006_
*1052 _1007_
*1053 _1008_
*1054 _1009_
*1055 _1010_
*1056 _1011_
*1057 _1012_
*1058 _1013_
*1059 _1014_
*1060 _1015_
*1061 _1016_
*1062 _1017_
*1063 _1018_
*1064 _1019_
*1065 _1020_
*1066 _1021_
*1067 _1022_
*1068 _1023_
*1069 clknet_0_wb_clk_i
*1070 clknet_2_0__leaf_wb_clk_i
*1071 clknet_2_1__leaf_wb_clk_i
*1072 clknet_2_2__leaf_wb_clk_i
*1073 clknet_2_3__leaf_wb_clk_i
*1074 clknet_leaf_0_wb_clk_i
*1075 clknet_leaf_10_wb_clk_i
*1076 clknet_leaf_11_wb_clk_i
*1077 clknet_leaf_12_wb_clk_i
*1078 clknet_leaf_13_wb_clk_i
*1079 clknet_leaf_14_wb_clk_i
*1080 clknet_leaf_15_wb_clk_i
*1081 clknet_leaf_16_wb_clk_i
*1082 clknet_leaf_17_wb_clk_i
*1083 clknet_leaf_18_wb_clk_i
*1084 clknet_leaf_19_wb_clk_i
*1085 clknet_leaf_1_wb_clk_i
*1086 clknet_leaf_20_wb_clk_i
*1087 clknet_leaf_21_wb_clk_i
*1088 clknet_leaf_22_wb_clk_i
*1089 clknet_leaf_23_wb_clk_i
*1090 clknet_leaf_24_wb_clk_i
*1091 clknet_leaf_25_wb_clk_i
*1092 clknet_leaf_26_wb_clk_i
*1093 clknet_leaf_27_wb_clk_i
*1094 clknet_leaf_28_wb_clk_i
*1095 clknet_leaf_29_wb_clk_i
*1096 clknet_leaf_2_wb_clk_i
*1097 clknet_leaf_30_wb_clk_i
*1098 clknet_leaf_31_wb_clk_i
*1099 clknet_leaf_32_wb_clk_i
*1100 clknet_leaf_33_wb_clk_i
*1101 clknet_leaf_34_wb_clk_i
*1102 clknet_leaf_35_wb_clk_i
*1103 clknet_leaf_36_wb_clk_i
*1104 clknet_leaf_37_wb_clk_i
*1105 clknet_leaf_38_wb_clk_i
*1106 clknet_leaf_39_wb_clk_i
*1107 clknet_leaf_3_wb_clk_i
*1108 clknet_leaf_40_wb_clk_i
*1109 clknet_leaf_41_wb_clk_i
*1110 clknet_leaf_42_wb_clk_i
*1111 clknet_leaf_44_wb_clk_i
*1112 clknet_leaf_45_wb_clk_i
*1113 clknet_leaf_46_wb_clk_i
*1114 clknet_leaf_47_wb_clk_i
*1115 clknet_leaf_48_wb_clk_i
*1116 clknet_leaf_49_wb_clk_i
*1117 clknet_leaf_4_wb_clk_i
*1118 clknet_leaf_50_wb_clk_i
*1119 clknet_leaf_51_wb_clk_i
*1120 clknet_leaf_52_wb_clk_i
*1121 clknet_leaf_53_wb_clk_i
*1122 clknet_leaf_5_wb_clk_i
*1123 clknet_leaf_6_wb_clk_i
*1124 clknet_leaf_7_wb_clk_i
*1125 clknet_leaf_8_wb_clk_i
*1126 clknet_leaf_9_wb_clk_i
*1127 net1
*1128 net10
*1129 net11
*1130 net12
*1131 net13
*1132 net14
*1133 net15
*1134 net16
*1135 net17
*1136 net18
*1137 net19
*1138 net2
*1139 net20
*1140 net21
*1141 net22
*1142 net3
*1143 net4
*1144 net5
*1145 net6
*1146 net7
*1147 net8
*1148 net9
*1149 tt_um_rejunity_ay8913\.active
*1150 tt_um_rejunity_ay8913\.amplitude_A\[0\]
*1151 tt_um_rejunity_ay8913\.amplitude_B\[0\]
*1152 tt_um_rejunity_ay8913\.amplitude_C\[0\]
*1153 tt_um_rejunity_ay8913\.clk_counter\[0\]
*1154 tt_um_rejunity_ay8913\.clk_counter\[1\]
*1155 tt_um_rejunity_ay8913\.clk_counter\[2\]
*1156 tt_um_rejunity_ay8913\.clk_counter\[3\]
*1157 tt_um_rejunity_ay8913\.clk_counter\[4\]
*1158 tt_um_rejunity_ay8913\.clk_counter\[5\]
*1159 tt_um_rejunity_ay8913\.clk_counter\[6\]
*1160 tt_um_rejunity_ay8913\.envelope_A
*1161 tt_um_rejunity_ay8913\.envelope_B
*1162 tt_um_rejunity_ay8913\.envelope_C
*1163 tt_um_rejunity_ay8913\.envelope_alternate
*1164 tt_um_rejunity_ay8913\.envelope_attack
*1165 tt_um_rejunity_ay8913\.envelope_continue
*1166 tt_um_rejunity_ay8913\.envelope_generator\.envelope_counter\[0\]
*1167 tt_um_rejunity_ay8913\.envelope_generator\.envelope_counter\[1\]
*1168 tt_um_rejunity_ay8913\.envelope_generator\.envelope_counter\[2\]
*1169 tt_um_rejunity_ay8913\.envelope_generator\.envelope_counter\[3\]
*1170 tt_um_rejunity_ay8913\.envelope_generator\.hold
*1171 tt_um_rejunity_ay8913\.envelope_generator\.invert_output
*1172 tt_um_rejunity_ay8913\.envelope_generator\.period\[0\]
*1173 tt_um_rejunity_ay8913\.envelope_generator\.period\[10\]
*1174 tt_um_rejunity_ay8913\.envelope_generator\.period\[11\]
*1175 tt_um_rejunity_ay8913\.envelope_generator\.period\[12\]
*1176 tt_um_rejunity_ay8913\.envelope_generator\.period\[13\]
*1177 tt_um_rejunity_ay8913\.envelope_generator\.period\[14\]
*1178 tt_um_rejunity_ay8913\.envelope_generator\.period\[15\]
*1179 tt_um_rejunity_ay8913\.envelope_generator\.period\[1\]
*1180 tt_um_rejunity_ay8913\.envelope_generator\.period\[2\]
*1181 tt_um_rejunity_ay8913\.envelope_generator\.period\[3\]
*1182 tt_um_rejunity_ay8913\.envelope_generator\.period\[4\]
*1183 tt_um_rejunity_ay8913\.envelope_generator\.period\[5\]
*1184 tt_um_rejunity_ay8913\.envelope_generator\.period\[6\]
*1185 tt_um_rejunity_ay8913\.envelope_generator\.period\[7\]
*1186 tt_um_rejunity_ay8913\.envelope_generator\.period\[8\]
*1187 tt_um_rejunity_ay8913\.envelope_generator\.period\[9\]
*1188 tt_um_rejunity_ay8913\.envelope_generator\.signal_edge\.previous_signal_state_0
*1189 tt_um_rejunity_ay8913\.envelope_generator\.signal_edge\.signal
*1190 tt_um_rejunity_ay8913\.envelope_generator\.stop
*1191 tt_um_rejunity_ay8913\.envelope_generator\.tone\.counter\[0\]
*1192 tt_um_rejunity_ay8913\.envelope_generator\.tone\.counter\[10\]
*1193 tt_um_rejunity_ay8913\.envelope_generator\.tone\.counter\[11\]
*1194 tt_um_rejunity_ay8913\.envelope_generator\.tone\.counter\[12\]
*1195 tt_um_rejunity_ay8913\.envelope_generator\.tone\.counter\[13\]
*1196 tt_um_rejunity_ay8913\.envelope_generator\.tone\.counter\[14\]
*1197 tt_um_rejunity_ay8913\.envelope_generator\.tone\.counter\[15\]
*1198 tt_um_rejunity_ay8913\.envelope_generator\.tone\.counter\[1\]
*1199 tt_um_rejunity_ay8913\.envelope_generator\.tone\.counter\[2\]
*1200 tt_um_rejunity_ay8913\.envelope_generator\.tone\.counter\[3\]
*1201 tt_um_rejunity_ay8913\.envelope_generator\.tone\.counter\[4\]
*1202 tt_um_rejunity_ay8913\.envelope_generator\.tone\.counter\[5\]
*1203 tt_um_rejunity_ay8913\.envelope_generator\.tone\.counter\[6\]
*1204 tt_um_rejunity_ay8913\.envelope_generator\.tone\.counter\[7\]
*1205 tt_um_rejunity_ay8913\.envelope_generator\.tone\.counter\[8\]
*1206 tt_um_rejunity_ay8913\.envelope_generator\.tone\.counter\[9\]
*1207 tt_um_rejunity_ay8913\.latched_register\[0\]
*1208 tt_um_rejunity_ay8913\.latched_register\[1\]
*1209 tt_um_rejunity_ay8913\.latched_register\[2\]
*1210 tt_um_rejunity_ay8913\.latched_register\[3\]
*1211 tt_um_rejunity_ay8913\.noise_disable_A
*1212 tt_um_rejunity_ay8913\.noise_disable_B
*1213 tt_um_rejunity_ay8913\.noise_disable_C
*1214 tt_um_rejunity_ay8913\.noise_generator\.lfsr\[0\]
*1215 tt_um_rejunity_ay8913\.noise_generator\.lfsr\[10\]
*1216 tt_um_rejunity_ay8913\.noise_generator\.lfsr\[11\]
*1217 tt_um_rejunity_ay8913\.noise_generator\.lfsr\[12\]
*1218 tt_um_rejunity_ay8913\.noise_generator\.lfsr\[13\]
*1219 tt_um_rejunity_ay8913\.noise_generator\.lfsr\[14\]
*1220 tt_um_rejunity_ay8913\.noise_generator\.lfsr\[15\]
*1221 tt_um_rejunity_ay8913\.noise_generator\.lfsr\[16\]
*1222 tt_um_rejunity_ay8913\.noise_generator\.lfsr\[1\]
*1223 tt_um_rejunity_ay8913\.noise_generator\.lfsr\[2\]
*1224 tt_um_rejunity_ay8913\.noise_generator\.lfsr\[3\]
*1225 tt_um_rejunity_ay8913\.noise_generator\.lfsr\[4\]
*1226 tt_um_rejunity_ay8913\.noise_generator\.lfsr\[5\]
*1227 tt_um_rejunity_ay8913\.noise_generator\.lfsr\[6\]
*1228 tt_um_rejunity_ay8913\.noise_generator\.lfsr\[7\]
*1229 tt_um_rejunity_ay8913\.noise_generator\.lfsr\[8\]
*1230 tt_um_rejunity_ay8913\.noise_generator\.lfsr\[9\]
*1231 tt_um_rejunity_ay8913\.noise_generator\.period\[0\]
*1232 tt_um_rejunity_ay8913\.noise_generator\.period\[1\]
*1233 tt_um_rejunity_ay8913\.noise_generator\.period\[2\]
*1234 tt_um_rejunity_ay8913\.noise_generator\.period\[3\]
*1235 tt_um_rejunity_ay8913\.noise_generator\.period\[4\]
*1236 tt_um_rejunity_ay8913\.noise_generator\.signal_edge\.previous_signal_state_0
*1237 tt_um_rejunity_ay8913\.noise_generator\.signal_edge\.signal
*1238 tt_um_rejunity_ay8913\.noise_generator\.tone\.counter\[0\]
*1239 tt_um_rejunity_ay8913\.noise_generator\.tone\.counter\[1\]
*1240 tt_um_rejunity_ay8913\.noise_generator\.tone\.counter\[2\]
*1241 tt_um_rejunity_ay8913\.noise_generator\.tone\.counter\[3\]
*1242 tt_um_rejunity_ay8913\.noise_generator\.tone\.counter\[4\]
*1243 tt_um_rejunity_ay8913\.pwm_A\.accumulator\[2\]
*1244 tt_um_rejunity_ay8913\.pwm_A\.accumulator\[3\]
*1245 tt_um_rejunity_ay8913\.pwm_A\.accumulator\[4\]
*1246 tt_um_rejunity_ay8913\.pwm_A\.accumulator\[5\]
*1247 tt_um_rejunity_ay8913\.pwm_A\.accumulator\[6\]
*1248 tt_um_rejunity_ay8913\.pwm_A\.accumulator\[7\]
*1249 tt_um_rejunity_ay8913\.pwm_A\.accumulator\[8\]
*1250 tt_um_rejunity_ay8913\.pwm_B\.accumulator\[2\]
*1251 tt_um_rejunity_ay8913\.pwm_B\.accumulator\[3\]
*1252 tt_um_rejunity_ay8913\.pwm_B\.accumulator\[4\]
*1253 tt_um_rejunity_ay8913\.pwm_B\.accumulator\[5\]
*1254 tt_um_rejunity_ay8913\.pwm_B\.accumulator\[6\]
*1255 tt_um_rejunity_ay8913\.pwm_B\.accumulator\[7\]
*1256 tt_um_rejunity_ay8913\.pwm_B\.accumulator\[8\]
*1257 tt_um_rejunity_ay8913\.pwm_C\.accumulator\[2\]
*1258 tt_um_rejunity_ay8913\.pwm_C\.accumulator\[3\]
*1259 tt_um_rejunity_ay8913\.pwm_C\.accumulator\[4\]
*1260 tt_um_rejunity_ay8913\.pwm_C\.accumulator\[5\]
*1261 tt_um_rejunity_ay8913\.pwm_C\.accumulator\[6\]
*1262 tt_um_rejunity_ay8913\.pwm_C\.accumulator\[7\]
*1263 tt_um_rejunity_ay8913\.pwm_C\.accumulator\[8\]
*1264 tt_um_rejunity_ay8913\.pwm_master\.accumulator\[2\]
*1265 tt_um_rejunity_ay8913\.pwm_master\.accumulator\[3\]
*1266 tt_um_rejunity_ay8913\.pwm_master\.accumulator\[4\]
*1267 tt_um_rejunity_ay8913\.pwm_master\.accumulator\[5\]
*1268 tt_um_rejunity_ay8913\.pwm_master\.accumulator\[6\]
*1269 tt_um_rejunity_ay8913\.pwm_master\.accumulator\[7\]
*1270 tt_um_rejunity_ay8913\.pwm_master\.accumulator\[8\]
*1271 tt_um_rejunity_ay8913\.pwm_master\.accumulator\[9\]
*1272 tt_um_rejunity_ay8913\.restart_envelope
*1273 tt_um_rejunity_ay8913\.spi_dac_i_2\.counter\[0\]
*1274 tt_um_rejunity_ay8913\.spi_dac_i_2\.counter\[1\]
*1275 tt_um_rejunity_ay8913\.spi_dac_i_2\.counter\[2\]
*1276 tt_um_rejunity_ay8913\.spi_dac_i_2\.counter\[3\]
*1277 tt_um_rejunity_ay8913\.spi_dac_i_2\.counter\[4\]
*1278 tt_um_rejunity_ay8913\.spi_dac_i_2\.spi_dat_buff\[10\]
*1279 tt_um_rejunity_ay8913\.spi_dac_i_2\.spi_dat_buff\[11\]
*1280 tt_um_rejunity_ay8913\.spi_dac_i_2\.spi_dat_buff\[2\]
*1281 tt_um_rejunity_ay8913\.spi_dac_i_2\.spi_dat_buff\[3\]
*1282 tt_um_rejunity_ay8913\.spi_dac_i_2\.spi_dat_buff\[4\]
*1283 tt_um_rejunity_ay8913\.spi_dac_i_2\.spi_dat_buff\[5\]
*1284 tt_um_rejunity_ay8913\.spi_dac_i_2\.spi_dat_buff\[6\]
*1285 tt_um_rejunity_ay8913\.spi_dac_i_2\.spi_dat_buff\[7\]
*1286 tt_um_rejunity_ay8913\.spi_dac_i_2\.spi_dat_buff\[8\]
*1287 tt_um_rejunity_ay8913\.spi_dac_i_2\.spi_dat_buff\[9\]
*1288 tt_um_rejunity_ay8913\.tone_A
*1289 tt_um_rejunity_ay8913\.tone_A_generator\.counter\[0\]
*1290 tt_um_rejunity_ay8913\.tone_A_generator\.counter\[10\]
*1291 tt_um_rejunity_ay8913\.tone_A_generator\.counter\[11\]
*1292 tt_um_rejunity_ay8913\.tone_A_generator\.counter\[1\]
*1293 tt_um_rejunity_ay8913\.tone_A_generator\.counter\[2\]
*1294 tt_um_rejunity_ay8913\.tone_A_generator\.counter\[3\]
*1295 tt_um_rejunity_ay8913\.tone_A_generator\.counter\[4\]
*1296 tt_um_rejunity_ay8913\.tone_A_generator\.counter\[5\]
*1297 tt_um_rejunity_ay8913\.tone_A_generator\.counter\[6\]
*1298 tt_um_rejunity_ay8913\.tone_A_generator\.counter\[7\]
*1299 tt_um_rejunity_ay8913\.tone_A_generator\.counter\[8\]
*1300 tt_um_rejunity_ay8913\.tone_A_generator\.counter\[9\]
*1301 tt_um_rejunity_ay8913\.tone_A_generator\.period\[0\]
*1302 tt_um_rejunity_ay8913\.tone_A_generator\.period\[10\]
*1303 tt_um_rejunity_ay8913\.tone_A_generator\.period\[11\]
*1304 tt_um_rejunity_ay8913\.tone_A_generator\.period\[1\]
*1305 tt_um_rejunity_ay8913\.tone_A_generator\.period\[2\]
*1306 tt_um_rejunity_ay8913\.tone_A_generator\.period\[3\]
*1307 tt_um_rejunity_ay8913\.tone_A_generator\.period\[4\]
*1308 tt_um_rejunity_ay8913\.tone_A_generator\.period\[5\]
*1309 tt_um_rejunity_ay8913\.tone_A_generator\.period\[6\]
*1310 tt_um_rejunity_ay8913\.tone_A_generator\.period\[7\]
*1311 tt_um_rejunity_ay8913\.tone_A_generator\.period\[8\]
*1312 tt_um_rejunity_ay8913\.tone_A_generator\.period\[9\]
*1313 tt_um_rejunity_ay8913\.tone_B
*1314 tt_um_rejunity_ay8913\.tone_B_generator\.counter\[0\]
*1315 tt_um_rejunity_ay8913\.tone_B_generator\.counter\[10\]
*1316 tt_um_rejunity_ay8913\.tone_B_generator\.counter\[11\]
*1317 tt_um_rejunity_ay8913\.tone_B_generator\.counter\[1\]
*1318 tt_um_rejunity_ay8913\.tone_B_generator\.counter\[2\]
*1319 tt_um_rejunity_ay8913\.tone_B_generator\.counter\[3\]
*1320 tt_um_rejunity_ay8913\.tone_B_generator\.counter\[4\]
*1321 tt_um_rejunity_ay8913\.tone_B_generator\.counter\[5\]
*1322 tt_um_rejunity_ay8913\.tone_B_generator\.counter\[6\]
*1323 tt_um_rejunity_ay8913\.tone_B_generator\.counter\[7\]
*1324 tt_um_rejunity_ay8913\.tone_B_generator\.counter\[8\]
*1325 tt_um_rejunity_ay8913\.tone_B_generator\.counter\[9\]
*1326 tt_um_rejunity_ay8913\.tone_B_generator\.period\[0\]
*1327 tt_um_rejunity_ay8913\.tone_B_generator\.period\[10\]
*1328 tt_um_rejunity_ay8913\.tone_B_generator\.period\[11\]
*1329 tt_um_rejunity_ay8913\.tone_B_generator\.period\[1\]
*1330 tt_um_rejunity_ay8913\.tone_B_generator\.period\[2\]
*1331 tt_um_rejunity_ay8913\.tone_B_generator\.period\[3\]
*1332 tt_um_rejunity_ay8913\.tone_B_generator\.period\[4\]
*1333 tt_um_rejunity_ay8913\.tone_B_generator\.period\[5\]
*1334 tt_um_rejunity_ay8913\.tone_B_generator\.period\[6\]
*1335 tt_um_rejunity_ay8913\.tone_B_generator\.period\[7\]
*1336 tt_um_rejunity_ay8913\.tone_B_generator\.period\[8\]
*1337 tt_um_rejunity_ay8913\.tone_B_generator\.period\[9\]
*1338 tt_um_rejunity_ay8913\.tone_C
*1339 tt_um_rejunity_ay8913\.tone_C_generator\.counter\[0\]
*1340 tt_um_rejunity_ay8913\.tone_C_generator\.counter\[10\]
*1341 tt_um_rejunity_ay8913\.tone_C_generator\.counter\[11\]
*1342 tt_um_rejunity_ay8913\.tone_C_generator\.counter\[1\]
*1343 tt_um_rejunity_ay8913\.tone_C_generator\.counter\[2\]
*1344 tt_um_rejunity_ay8913\.tone_C_generator\.counter\[3\]
*1345 tt_um_rejunity_ay8913\.tone_C_generator\.counter\[4\]
*1346 tt_um_rejunity_ay8913\.tone_C_generator\.counter\[5\]
*1347 tt_um_rejunity_ay8913\.tone_C_generator\.counter\[6\]
*1348 tt_um_rejunity_ay8913\.tone_C_generator\.counter\[7\]
*1349 tt_um_rejunity_ay8913\.tone_C_generator\.counter\[8\]
*1350 tt_um_rejunity_ay8913\.tone_C_generator\.counter\[9\]
*1351 tt_um_rejunity_ay8913\.tone_C_generator\.period\[0\]
*1352 tt_um_rejunity_ay8913\.tone_C_generator\.period\[10\]
*1353 tt_um_rejunity_ay8913\.tone_C_generator\.period\[11\]
*1354 tt_um_rejunity_ay8913\.tone_C_generator\.period\[1\]
*1355 tt_um_rejunity_ay8913\.tone_C_generator\.period\[2\]
*1356 tt_um_rejunity_ay8913\.tone_C_generator\.period\[3\]
*1357 tt_um_rejunity_ay8913\.tone_C_generator\.period\[4\]
*1358 tt_um_rejunity_ay8913\.tone_C_generator\.period\[5\]
*1359 tt_um_rejunity_ay8913\.tone_C_generator\.period\[6\]
*1360 tt_um_rejunity_ay8913\.tone_C_generator\.period\[7\]
*1361 tt_um_rejunity_ay8913\.tone_C_generator\.period\[8\]
*1362 tt_um_rejunity_ay8913\.tone_C_generator\.period\[9\]
*1363 tt_um_rejunity_ay8913\.tone_disable_A
*1364 tt_um_rejunity_ay8913\.tone_disable_B
*1365 tt_um_rejunity_ay8913\.tone_disable_C
*1366 ANTENNA__1025__A2
*1367 ANTENNA__1034__B1
*1368 ANTENNA__1038__A1
*1369 ANTENNA__1038__B1
*1370 ANTENNA__1040__A3
*1371 ANTENNA__1043__A2
*1372 ANTENNA__1047__I
*1373 ANTENNA__1048__I
*1374 ANTENNA__1052__I
*1375 ANTENNA__1053__A3
*1376 ANTENNA__1053__A4
*1377 ANTENNA__1057__I
*1378 ANTENNA__1059__A1
*1379 ANTENNA__1061__A1
*1380 ANTENNA__1063__I
*1381 ANTENNA__1066__I
*1382 ANTENNA__1069__I
*1383 ANTENNA__1070__A1
*1384 ANTENNA__1073__I
*1385 ANTENNA__1074__A1
*1386 ANTENNA__1080__I
*1387 ANTENNA__1082__I
*1388 ANTENNA__1083__A1
*1389 ANTENNA__1083__A2
*1390 ANTENNA__1084__A1
*1391 ANTENNA__1090__A1
*1392 ANTENNA__1092__I
*1393 ANTENNA__1097__I
*1394 ANTENNA__1098__I
*1395 ANTENNA__1100__A1
*1396 ANTENNA__1101__A1
*1397 ANTENNA__1102__I
*1398 ANTENNA__1103__I
*1399 ANTENNA__1105__I
*1400 ANTENNA__1106__A1
*1401 ANTENNA__1107__A1
*1402 ANTENNA__1108__I
*1403 ANTENNA__1111__A1
*1404 ANTENNA__1112__I
*1405 ANTENNA__1113__A1
*1406 ANTENNA__1115__A1
*1407 ANTENNA__1116__I
*1408 ANTENNA__1117__A1
*1409 ANTENNA__1119__A2
*1410 ANTENNA__1119__B
*1411 ANTENNA__1120__A2
*1412 ANTENNA__1121__I
*1413 ANTENNA__1127__A1
*1414 ANTENNA__1139__A1
*1415 ANTENNA__1153__I
*1416 ANTENNA__1156__A1
*1417 ANTENNA__1158__I
*1418 ANTENNA__1165__A1
*1419 ANTENNA__1166__A1
*1420 ANTENNA__1170__A1
*1421 ANTENNA__1172__B
*1422 ANTENNA__1174__I
*1423 ANTENNA__1175__I
*1424 ANTENNA__1176__I
*1425 ANTENNA__1189__I
*1426 ANTENNA__1200__A1
*1427 ANTENNA__1202__B
*1428 ANTENNA__1216__A1
*1429 ANTENNA__1222__A2
*1430 ANTENNA__1223__I
*1431 ANTENNA__1225__A1
*1432 ANTENNA__1225__A2
*1433 ANTENNA__1227__A1
*1434 ANTENNA__1233__A1
*1435 ANTENNA__1235__I
*1436 ANTENNA__1237__A1
*1437 ANTENNA__1239__I
*1438 ANTENNA__1240__A1
*1439 ANTENNA__1243__A1
*1440 ANTENNA__1246__A1
*1441 ANTENNA__1251__A1
*1442 ANTENNA__1252__A1
*1443 ANTENNA__1258__A1
*1444 ANTENNA__1260__I
*1445 ANTENNA__1263__A1
*1446 ANTENNA__1265__A1
*1447 ANTENNA__1267__I
*1448 ANTENNA__1268__A1
*1449 ANTENNA__1270__I
*1450 ANTENNA__1271__A1
*1451 ANTENNA__1273__I
*1452 ANTENNA__1274__A1
*1453 ANTENNA__1278__A1
*1454 ANTENNA__1280__A1
*1455 ANTENNA__1282__A1
*1456 ANTENNA__1284__A1
*1457 ANTENNA__1287__A1
*1458 ANTENNA__1291__C
*1459 ANTENNA__1300__A2
*1460 ANTENNA__1301__A2
*1461 ANTENNA__1308__B
*1462 ANTENNA__1311__B
*1463 ANTENNA__1315__B
*1464 ANTENNA__1318__B