*SPEF "ieee 1481-1999"
*DESIGN "wrapped_mc14500"
*DATE "11:11:11 Fri 11 11, 1111"
*VENDOR "OpenRCX"
*PROGRAM "Parallel Extraction"
*VERSION "1.0"
*DESIGN_FLOW "NAME_SCOPE LOCAL" "PIN_CAP NONE"
*DIVIDER /
*DELIMITER :
*BUS_DELIMITER []
*T_UNIT 1 NS
*C_UNIT 1 PF
*R_UNIT 1 OHM
*L_UNIT 1 HENRY

*NAME_MAP
*1 SDI
*2 clk_i
*3 custom_setting
*4 io_in[0]
*5 io_in[1]
*6 io_in[2]
*7 io_in[3]
*8 io_in[4]
*9 io_in[5]
*10 io_in[6]
*11 io_in[7]
*12 net67
*13 io_out[10]
*14 io_out[11]
*15 io_out[12]
*16 io_out[13]
*17 io_out[14]
*18 io_out[15]
*19 io_out[16]
*20 io_out[17]
*21 io_out[18]
*22 io_out[19]
*23 net68
*24 io_out[20]
*25 io_out[21]
*26 io_out[22]
*27 io_out[23]
*28 io_out[24]
*29 io_out[25]
*30 io_out[26]
*31 io_out[27]
*32 io_out[28]
*33 io_out[29]
*34 net69
*35 io_out[30]
*36 net70
*37 net71
*38 net72
*39 net73
*40 net74
*41 io_out[8]
*42 io_out[9]
*43 rst_n
*44 sram_addr[0]
*45 sram_addr[1]
*46 sram_addr[2]
*47 sram_addr[3]
*48 sram_addr[4]
*49 sram_addr[5]
*50 sram_gwe
*51 sram_in[0]
*52 sram_in[1]
*53 sram_in[2]
*54 sram_in[3]
*55 sram_in[4]
*56 sram_in[5]
*57 sram_in[6]
*58 sram_in[7]
*59 sram_out[0]
*60 sram_out[1]
*61 sram_out[2]
*62 sram_out[3]
*63 sram_out[4]
*64 sram_out[5]
*65 sram_out[6]
*66 sram_out[7]
*69 _0000_
*70 _0001_
*71 _0002_
*72 _0003_
*73 _0004_
*74 _0005_
*75 _0006_
*76 _0007_
*77 _0008_
*78 _0009_
*79 _0010_
*80 _0011_
*81 _0012_
*82 _0013_
*83 _0014_
*84 _0015_
*85 _0016_
*86 _0017_
*87 _0018_
*88 _0019_
*89 _0020_
*90 _0021_
*91 _0022_
*92 _0023_
*93 _0024_
*94 _0025_
*95 _0026_
*96 _0027_
*97 _0028_
*98 _0029_
*99 _0030_
*100 _0031_
*101 _0032_
*102 _0033_
*103 _0034_
*104 _0035_
*105 _0036_
*106 _0037_
*107 _0038_
*108 _0039_
*109 _0040_
*110 _0041_
*111 _0042_
*112 _0043_
*113 _0044_
*114 _0045_
*115 _0046_
*116 _0047_
*117 _0048_
*118 _0049_
*119 _0050_
*120 _0051_
*121 _0052_
*122 _0053_
*123 _0054_
*124 _0055_
*125 _0056_
*126 _0057_
*127 _0058_
*128 _0059_
*129 _0060_
*130 _0061_
*131 _0062_
*132 _0063_
*133 _0064_
*134 _0065_
*135 _0066_
*136 _0067_
*137 _0068_
*138 _0069_
*139 _0070_
*140 _0071_
*141 _0072_
*142 _0073_
*143 _0074_
*144 _0075_
*145 _0076_
*146 _0077_
*147 _0078_
*148 _0079_
*149 _0080_
*150 _0081_
*151 _0082_
*152 _0083_
*153 _0084_
*154 _0085_
*155 _0086_
*156 _0087_
*157 _0088_
*158 _0089_
*159 _0090_
*160 _0091_
*161 _0092_
*162 _0093_
*163 _0094_
*164 _0095_
*165 _0096_
*166 _0097_
*167 _0098_
*168 _0099_
*169 _0100_
*170 _0101_
*171 _0102_
*172 _0103_
*173 _0104_
*174 _0105_
*175 _0106_
*176 _0107_
*177 _0108_
*178 _0109_
*179 _0110_
*180 _0111_
*181 _0112_
*182 _0113_
*183 _0114_
*184 _0115_
*185 _0116_
*186 _0117_
*187 _0118_
*188 _0119_
*189 _0120_
*190 _0121_
*191 _0122_
*192 _0123_
*193 _0124_
*194 _0125_
*195 _0126_
*196 _0127_
*197 _0128_
*198 _0129_
*199 _0130_
*200 _0131_
*201 _0132_
*202 _0133_
*203 _0134_
*204 _0135_
*205 _0136_
*206 _0137_
*207 _0138_
*208 _0139_
*209 _0140_
*210 _0141_
*211 _0142_
*212 _0143_
*213 _0144_
*214 _0145_
*215 _0146_
*216 _0147_
*217 _0148_
*218 _0149_
*219 _0150_
*220 _0151_
*221 _0152_
*222 _0153_
*223 _0154_
*224 _0155_
*225 _0156_
*226 _0157_
*227 _0158_
*228 _0159_
*229 _0160_
*230 _0161_
*231 _0162_
*232 _0163_
*233 _0164_
*234 _0165_
*235 _0166_
*236 _0167_
*237 _0168_
*238 _0169_
*239 _0170_
*240 _0171_
*241 _0172_
*242 _0173_
*243 _0174_
*244 _0175_
*245 _0176_
*246 _0177_
*247 _0178_
*248 _0179_
*249 _0180_
*250 _0181_
*251 _0182_
*252 _0183_
*253 _0184_
*254 _0185_
*255 _0186_
*256 _0187_
*257 _0188_
*258 _0189_
*259 _0190_
*260 _0191_
*261 _0192_
*262 _0193_
*263 _0194_
*264 _0195_
*265 _0196_
*266 _0197_
*267 _0198_
*268 _0199_
*269 _0200_
*270 _0201_
*271 _0202_
*272 _0203_
*273 _0204_
*274 _0205_
*275 _0206_
*276 _0207_
*277 _0208_
*278 _0209_
*279 _0210_
*280 _0211_
*281 _0212_
*282 _0213_
*283 _0214_
*284 _0215_
*285 _0216_
*286 _0217_
*287 _0218_
*288 _0219_
*289 _0220_
*290 _0221_
*291 _0222_
*292 _0223_
*293 _0224_
*294 _0225_
*295 _0226_
*296 _0227_
*297 _0228_
*298 _0229_
*299 _0230_
*300 _0231_
*301 _0232_
*302 _0233_
*303 _0234_
*304 _0235_
*305 _0236_
*306 _0237_
*307 _0238_
*308 _0239_
*309 _0240_
*310 _0241_
*311 _0242_
*312 _0243_
*313 _0244_
*314 _0245_
*315 _0246_
*316 _0247_
*317 _0248_
*318 _0249_
*319 _0250_
*320 _0251_
*321 _0252_
*322 _0253_
*323 _0254_
*324 _0255_
*325 _0256_
*326 _0257_
*327 _0258_
*328 _0259_
*329 _0260_
*330 _0261_
*331 _0262_
*332 _0263_
*333 _0264_
*334 _0265_
*335 _0266_
*336 _0267_
*337 _0268_
*338 _0269_
*339 _0270_
*340 _0271_
*341 _0272_
*342 _0273_
*343 _0274_
*344 _0275_
*345 _0276_
*346 _0277_
*347 _0278_
*348 _0279_
*349 _0280_
*350 _0281_
*351 _0282_
*352 _0283_
*353 _0284_
*354 _0285_
*355 _0286_
*356 _0287_
*357 _0288_
*358 _0289_
*359 _0290_
*360 _0291_
*361 _0292_
*362 _0293_
*363 _0294_
*364 _0295_
*365 _0296_
*366 _0297_
*367 _0298_
*368 _0299_
*369 _0300_
*370 _0301_
*371 _0302_
*372 _0303_
*373 _0304_
*374 _0305_
*375 _0306_
*376 _0307_
*377 _0308_
*378 _0309_
*379 _0310_
*380 _0311_
*381 _0312_
*382 _0313_
*383 _0314_
*384 _0315_
*385 _0316_
*386 _0317_
*387 _0318_
*388 _0319_
*389 _0320_
*390 _0321_
*391 _0322_
*392 _0323_
*393 _0324_
*394 _0325_
*395 _0326_
*396 _0327_
*397 _0328_
*398 _0329_
*399 _0330_
*400 _0331_
*401 _0332_
*402 _0333_
*403 _0334_
*404 _0335_
*405 _0336_
*406 _0337_
*407 _0338_
*408 _0339_
*409 _0340_
*410 _0341_
*411 _0342_
*412 _0343_
*413 _0344_
*414 _0345_
*415 _0346_
*416 _0347_
*417 _0348_
*418 _0349_
*419 _0350_
*420 _0351_
*421 _0352_
*422 _0353_
*423 _0354_
*424 _0355_
*425 _0356_
*426 _0357_
*427 _0358_
*428 _0359_
*429 _0360_
*430 _0361_
*431 _0362_
*432 _0363_
*433 _0364_
*434 _0365_
*435 _0366_
*436 _0367_
*437 _0368_
*438 _0369_
*439 _0370_
*440 _0371_
*441 _0372_
*442 _0373_
*443 _0374_
*444 _0375_
*445 _0376_
*446 _0377_
*447 _0378_
*448 _0379_
*449 _0380_
*450 _0381_
*451 _0382_
*452 _0383_
*453 _0384_
*454 _0385_
*455 _0386_
*456 _0387_
*457 _0388_
*458 _0389_
*459 _0390_
*460 _0391_
*461 _0392_
*462 _0393_
*463 _0394_
*464 _0395_
*465 _0396_
*466 _0397_
*467 _0398_
*468 _0399_
*469 _0400_
*470 _0401_
*471 _0402_
*472 _0403_
*473 _0404_
*474 _0405_
*475 _0406_
*476 _0407_
*477 _0408_
*478 _0409_
*479 _0410_
*480 _0411_
*481 _0412_
*482 _0413_
*483 _0414_
*484 _0415_
*485 _0416_
*486 _0417_
*487 _0418_
*488 _0419_
*489 _0420_
*490 _0421_
*491 _0422_
*492 _0423_
*493 _0424_
*494 _0425_
*495 _0426_
*496 _0427_
*497 _0428_
*498 _0429_
*499 _0430_
*500 _0431_
*501 _0432_
*502 _0433_
*503 _0434_
*504 _0435_
*505 _0436_
*506 _0437_
*507 _0438_
*508 _0439_
*509 _0440_
*510 _0441_
*511 _0442_
*512 _0443_
*513 _0444_
*514 _0445_
*515 _0446_
*516 _0447_
*517 _0448_
*518 _0449_
*519 _0450_
*520 _0451_
*521 _0452_
*522 _0453_
*523 _0454_
*524 _0455_
*525 _0456_
*526 _0457_
*527 _0458_
*528 _0459_
*529 _0460_
*530 _0461_
*531 _0462_
*532 _0463_
*533 _0464_
*534 _0465_
*535 _0466_
*536 _0467_
*537 _0468_
*538 _0469_
*539 _0470_
*540 _0471_
*541 _0472_
*542 _0473_
*543 _0474_
*544 _0475_
*545 _0476_
*546 _0477_
*547 _0478_
*548 _0479_
*549 _0480_
*550 _0481_
*551 _0482_
*552 _0483_
*553 _0484_
*554 _0485_
*555 _0486_
*556 _0487_
*557 _0488_
*558 _0489_
*559 _0490_
*560 _0491_
*561 _0492_
*562 _0493_
*563 _0494_
*564 _0495_
*565 _0496_
*566 _0497_
*567 _0498_
*568 _0499_
*569 _0500_
*570 _0501_
*571 _0502_
*572 _0503_
*573 _0504_
*574 _0505_
*575 _0506_
*576 _0507_
*577 _0508_
*578 _0509_
*579 _0510_
*580 clknet_0_clk_i
*581 clknet_3_0__leaf_clk_i
*582 clknet_3_1__leaf_clk_i
*583 clknet_3_2__leaf_clk_i
*584 clknet_3_3__leaf_clk_i
*585 clknet_3_4__leaf_clk_i
*586 clknet_3_5__leaf_clk_i
*587 clknet_3_6__leaf_clk_i
*588 clknet_3_7__leaf_clk_i
*589 dest\[0\]
*590 dest\[10\]
*591 dest\[11\]
*592 dest\[12\]
*593 dest\[13\]
*594 dest\[14\]
*595 dest\[15\]
*596 dest\[16\]
*597 dest\[1\]
*598 dest\[2\]
*599 dest\[3\]
*600 dest\[4\]
*601 dest\[5\]
*602 dest\[6\]
*603 dest\[7\]
*604 dest\[8\]
*605 dest\[9\]
*606 dia\[0\]
*607 dia\[1\]
*608 dia\[2\]
*609 dia\[3\]
*610 dia\[4\]
*611 dia\[5\]
*612 dia\[6\]
*613 dia\[7\]
*614 dib\[0\]
*615 dib\[1\]
*616 dib\[2\]
*617 dib\[3\]
*618 dib\[4\]
*619 dib\[5\]
*620 dib\[6\]
*621 dib\[7\]
*622 mar\[0\]
*623 mar\[1\]
*624 mc14500\.DATA_OUT
*625 mc14500\.IEN_l
*626 mc14500\.OEN_l
*627 mc14500\.X1
*628 mc14500\.instr_l\[0\]
*629 mc14500\.instr_l\[1\]
*630 mc14500\.instr_l\[2\]
*631 mc14500\.instr_l\[3\]
*632 mc14500\.skip
*633 net1
*634 net10
*635 net11
*636 net12
*637 net13
*638 net14
*639 net15
*640 net16
*641 net17
*642 net18
*643 net19
*644 net2
*645 net20
*646 net21
*647 net22
*648 net23
*649 net24
*650 net25
*651 net26
*652 net27
*653 net28
*654 net29
*655 net3
*656 net30
*657 net31
*658 net32
*659 net33
*660 net34
*661 net35
*662 net36
*663 net37
*664 net38
*665 net39
*666 net4
*667 net40
*668 net41
*669 net42
*670 net43
*671 net44
*672 net45
*673 net46
*674 net47
*675 net48
*676 net49
*677 net5
*678 net50
*679 net51
*680 net52
*681 net53
*682 net54
*683 net55
*684 net56
*685 net57
*686 net58
*687 net59
*688 net6
*689 net60
*690 net61
*691 net62
*692 net63
*693 net64
*694 net65
*695 net66
*696 net7
*697 net8
*698 net9
*699 rst_latency\[0\]
*700 rst_latency\[1\]
*701 scratch\[0\]
*702 scratch\[1\]
*703 scratch\[2\]
*704 scratch\[3\]
*705 scratch\[4\]
*706 scratch\[5\]
*707 ANTENNA__0524__I
*708 ANTENNA__0533__I
*709 ANTENNA__0537__I
*710 ANTENNA__0540__I
*711 ANTENNA__0541__I
*712 ANTENNA__0545__A1
*713 ANTENNA__0553__A1
*714 ANTENNA__0554__A2
*715 ANTENNA__0556__I
*716 ANTENNA__0557__I
*717 ANTENNA__0560__I
*718 ANTENNA__0562__A3
*719 ANTENNA__0563__I
*720 ANTENNA__0566__A1
*721 ANTENNA__0566__A2
*722 ANTENNA__0567__A2
*723 ANTENNA__0569__B
*724 ANTENNA__0572__A1
*725 ANTENNA__0573__A3
*726 ANTENNA__0574__A1
*727 ANTENNA__0576__A1
*728 ANTENNA__0578__A1
*729 ANTENNA__0580__A1
*730 ANTENNA__0582__A1
*731 ANTENNA__0582__B
*732 ANTENNA__0584__B
*733 ANTENNA__0584__C
*734 ANTENNA__0588__I
*735 ANTENNA__0590__I
*736 ANTENNA__0592__B
*737 ANTENNA__0599__I
*738 ANTENNA__0600__A1
*739 ANTENNA__0607__A1
*740 ANTENNA__0611__A1
*741 ANTENNA__0611__A2
*742 ANTENNA__0614__I
*743 ANTENNA__0617__A1
*744 ANTENNA__0618__A1
*745 ANTENNA__0618__A2
*746 ANTENNA__0619__A1
*747 ANTENNA__0622__A1
*748 ANTENNA__0622__A2
*749 ANTENNA__0626__A2
*750 ANTENNA__0630__A1
*751 ANTENNA__0631__A2
*752 ANTENNA__0636__A1
*753 ANTENNA__0636__C
*754 ANTENNA__0641__A1
*755 ANTENNA__0642__A1
*756 ANTENNA__0643__I
*757 ANTENNA__0644__I
*758 ANTENNA__0646__I
*759 ANTENNA__0647__B
*760 ANTENNA__0650__B
*761 ANTENNA__0653__A2
*762 ANTENNA__0654__A3
*763 ANTENNA__0655__I
*764 ANTENNA__0657__A2
*765 ANTENNA__0658__A1
*766 ANTENNA__0660__A3
*767 ANTENNA__0661__I
*768 ANTENNA__0664__I
*769 ANTENNA__0674__I
*770 ANTENNA__0677__I
*771 ANTENNA__0679__A2
*772 ANTENNA__0682__A2
*773 ANTENNA__0685__A2
*774 ANTENNA__0689__A2
*775 ANTENNA__0737__I
*776 ANTENNA__0738__I
*777 ANTENNA__0743__A1
*778 ANTENNA__0743__A3
*779 ANTENNA__0763__I
*780 ANTENNA__0783__I
*781 ANTENNA__0784__B
*782 ANTENNA__0794__A1
*783 ANTENNA__0816__I0
*784 ANTENNA__0818__A1
*785 ANTENNA__0823__I
*786 ANTENNA__0828__A1
*787 ANTENNA__0828__A2
*788 ANTENNA__0829__A1
*789 ANTENNA__0829__A2
*790 ANTENNA__0830__A1
*791 ANTENNA__0832__A1
*792 ANTENNA__0834__I0
*793 ANTENNA__0837__B
*794 ANTENNA__0838__A1
*795 ANTENNA__0839__I
*796 ANTENNA__0854__I
*797 ANTENNA__0869__I
*798 ANTENNA__0892__I
*799 ANTENNA__0895__I
*800 ANTENNA__0908__I
*801 ANTENNA__0920__C
*802 ANTENNA__0928__C
*803 ANTENNA__0936__I
*804 ANTENNA__0951__I
*805 ANTENNA__0961__C
*806 ANTENNA__0968__A1
*807 ANTENNA__1000__B
*808 ANTENNA__1001__C
*809 ANTENNA__1002__A1
*810 ANTENNA__1003__B
*811 ANTENNA__1006__B
*812 ANTENNA__1008__I
*813 ANTENNA__1009__I
*814 ANTENNA__1011__I
*815 ANTENNA__1012__I
*816 ANTENNA__1037__CLK
*817 ANTENNA__1038__CLK
*818 ANTENNA__1039__CLK
*819 ANTENNA__1043__CLK
*820 ANTENNA__1044__CLK
*821 ANTENNA__1062__CLK
*822 ANTENNA__1077__CLK
*823 ANTENNA__1078__CLK
*824 ANTENNA__1079__CLK
*825 ANTENNA__1080__CLK
*826 ANTENNA__1081__CLK
*827 ANTENNA__1082__CLK
*828 ANTENNA__1083__CLK
*829 ANTENNA__1084__CLK
*830 ANTENNA__1085__CLK
*831 ANTENNA__1086__CLK
*832 ANTENNA__1087__CLK
*833 ANTENNA__1088__CLK
*834 ANTENNA__1089__CLK
*835 ANTENNA__1090__CLK
*836 ANTENNA__1091__CLK
*837 ANTENNA__1092__CLK
*838 ANTENNA__1093__CLK
*839 ANTENNA__1094__CLK
*840 ANTENNA__1095__CLK
*841 ANTENNA__1096__CLK
*842 ANTENNA__1097__CLK
*843 ANTENNA__1098__CLK
*844 ANTENNA__1099__CLK
*845 ANTENNA__1100__CLK
*846 ANTENNA_clkbuf_0_clk_i_I
*847 ANTENNA_clkbuf_3_0__f_clk_i_I
*848 ANTENNA_clkbuf_3_1__f_clk_i_I
*849 ANTENNA_clkbuf_3_2__f_clk_i_I
*850 ANTENNA_clkbuf_3_3__f_clk_i_I
*851 ANTENNA_clkbuf_3_4__f_clk_i_I
*852 ANTENNA_clkbuf_3_5__f_clk_i_I
*853 ANTENNA_clkbuf_3_6__f_clk_i_I
*854 ANTENNA_clkbuf_3_7__f_clk_i_I
*855 ANTENNA_input10_I
*856 ANTENNA_input11_I
*857 ANTENNA_input12_I
*858 ANTENNA_input13_I
*859 ANTENNA_input14_I
*860 ANTENNA_input15_I
*861 ANTENNA_input16_I
*862 ANTENNA_input17_I
*863 ANTENNA_input18_I
*864 ANTENNA_input19_I
*865 ANTENNA_input1_I
*866 ANTENNA_input2_I
*867 ANTENNA_input3_I
*868 ANTENNA_input4_I
*869 ANTENNA_input5_I
*870 ANTENNA_input6_I
*871 ANTENNA_input7_I
*872 ANTENNA_input8_I
*873 ANTENNA_input9_I
*874 ANTENNA_output33_I
*875 ANTENNA_output35_I
*876 ANTENNA_output36_I
*877 ANTENNA_output37_I
*878 ANTENNA_output39_I
*879 FILLER_0_0_101
*880 FILLER_0_0_104
*881 FILLER_0_0_138
*882 FILLER_0_0_2
*883 FILLER_0_0_206
*884 FILLER_0_0_213
*885 FILLER_0_0_217
*886 FILLER_0_0_227
*887 FILLER_0_0_231
*888 FILLER_0_0_235
*889 FILLER_0_0_237
*890 FILLER_0_0_246
*891 FILLER_0_0_248
*892 FILLER_0_0_255
*893 FILLER_0_0_269
*894 FILLER_0_0_271
*895 FILLER_0_0_36
*896 FILLER_0_0_70
*897 FILLER_0_10_101
*898 FILLER_0_10_113
*899 FILLER_0_10_117
*900 FILLER_0_10_119
*901 FILLER_0_10_122
*902 FILLER_0_10_138
*903 FILLER_0_10_168
*904 FILLER_0_10_172
*905 FILLER_0_10_174
*906 FILLER_0_10_177
*907 FILLER_0_10_181
*908 FILLER_0_10_185
*909 FILLER_0_10_2
*910 FILLER_0_10_282
*911 FILLER_0_10_34
*912 FILLER_0_10_37
*913 FILLER_0_10_70
*914 FILLER_0_10_74
*915 FILLER_0_10_83
*916 FILLER_0_10_87
*917 FILLER_0_10_89
*918 FILLER_0_10_92
*919 FILLER_0_10_96
*920 FILLER_0_10_98
*921 FILLER_0_11_105
*922 FILLER_0_11_115
*923 FILLER_0_11_123
*924 FILLER_0_11_139
*925 FILLER_0_11_142
*926 FILLER_0_11_158
*927 FILLER_0_11_160
*928 FILLER_0_11_191
*929 FILLER_0_11_193
*930 FILLER_0_11_2
*931 FILLER_0_11_206
*932 FILLER_0_11_212
*933 FILLER_0_11_250
*934 FILLER_0_11_34
*935 FILLER_0_11_50
*936 FILLER_0_11_52
*937 FILLER_0_11_58
*938 FILLER_0_11_62
*939 FILLER_0_11_66
*940 FILLER_0_11_72
*941 FILLER_0_11_88
*942 FILLER_0_11_92
*943 FILLER_0_12_136
*944 FILLER_0_12_142
*945 FILLER_0_12_146
*946 FILLER_0_12_155
*947 FILLER_0_12_159
*948 FILLER_0_12_167
*949 FILLER_0_12_171
*950 FILLER_0_12_181
*951 FILLER_0_12_185
*952 FILLER_0_12_190
*953 FILLER_0_12_192
*954 FILLER_0_12_2
*955 FILLER_0_12_233
*956 FILLER_0_12_247
*957 FILLER_0_12_251
*958 FILLER_0_12_283
*959 FILLER_0_12_285
*960 FILLER_0_12_34
*961 FILLER_0_12_66
*962 FILLER_0_12_74
*963 FILLER_0_13_100
*964 FILLER_0_13_108
*965 FILLER_0_13_112
*966 FILLER_0_13_142
*967 FILLER_0_13_172
*968 FILLER_0_13_174
*969 FILLER_0_13_188
*970 FILLER_0_13_2
*971 FILLER_0_13_207
*972 FILLER_0_13_209
*973 FILLER_0_13_218
*974 FILLER_0_13_250
*975 FILLER_0_13_282
*976 FILLER_0_13_34
*977 FILLER_0_13_38
*978 FILLER_0_13_40
*979 FILLER_0_13_72
*980 FILLER_0_13_76
*981 FILLER_0_13_78
*982 FILLER_0_13_89
*983 FILLER_0_13_96
*984 FILLER_0_14_102
*985 FILLER_0_14_104
*986 FILLER_0_14_164
*987 FILLER_0_14_177
*988 FILLER_0_14_181
*989 FILLER_0_14_183
*990 FILLER_0_14_255
*991 FILLER_0_14_31
*992 FILLER_0_14_37
*993 FILLER_0_14_45
*994 FILLER_0_15_100
*995 FILLER_0_15_102
*996 FILLER_0_15_142
*997 FILLER_0_15_157
*998 FILLER_0_15_222
*999 FILLER_0_15_230
*1000 FILLER_0_15_232
*1001 FILLER_0_15_246
*1002 FILLER_0_15_250
*1003 FILLER_0_15_282
*1004 FILLER_0_15_31
*1005 FILLER_0_15_38
*1006 FILLER_0_15_42
*1007 FILLER_0_15_53
*1008 FILLER_0_15_64
*1009 FILLER_0_15_68
*1010 FILLER_0_15_72
*1011 FILLER_0_15_76
*1012 FILLER_0_15_86
*1013 FILLER_0_15_90
*1014 FILLER_0_16_102
*1015 FILLER_0_16_104
*1016 FILLER_0_16_107
*1017 FILLER_0_16_123
*1018 FILLER_0_16_131
*1019 FILLER_0_16_173
*1020 FILLER_0_16_18
*1021 FILLER_0_16_183
*1022 FILLER_0_16_2
*1023 FILLER_0_16_20
*1024 FILLER_0_16_213
*1025 FILLER_0_16_223
*1026 FILLER_0_16_276
*1027 FILLER_0_16_285
*1028 FILLER_0_16_34
*1029 FILLER_0_16_50
*1030 FILLER_0_16_56
*1031 FILLER_0_16_72
*1032 FILLER_0_16_80
*1033 FILLER_0_16_87
*1034 FILLER_0_16_94
*1035 FILLER_0_17_107
*1036 FILLER_0_17_117
*1037 FILLER_0_17_133
*1038 FILLER_0_17_137
*1039 FILLER_0_17_142
*1040 FILLER_0_17_18
*1041 FILLER_0_17_194
*1042 FILLER_0_17_196
*1043 FILLER_0_17_2
*1044 FILLER_0_17_208
*1045 FILLER_0_17_212
*1046 FILLER_0_17_214
*1047 FILLER_0_17_22
*1048 FILLER_0_17_239
*1049 FILLER_0_17_243
*1050 FILLER_0_17_252
*1051 FILLER_0_17_254
*1052 FILLER_0_17_279
*1053 FILLER_0_17_282
*1054 FILLER_0_17_37
*1055 FILLER_0_17_54
*1056 FILLER_0_17_56
*1057 FILLER_0_17_68
*1058 FILLER_0_17_72
*1059 FILLER_0_17_76
*1060 FILLER_0_17_80
*1061 FILLER_0_17_93
*1062 FILLER_0_17_99
*1063 FILLER_0_18_103
*1064 FILLER_0_18_136
*1065 FILLER_0_18_140
*1066 FILLER_0_18_170
*1067 FILLER_0_18_200
*1068 FILLER_0_18_241
*1069 FILLER_0_18_247
*1070 FILLER_0_18_31
*1071 FILLER_0_18_43
*1072 FILLER_0_18_58
*1073 FILLER_0_18_66
*1074 FILLER_0_19_10
*1075 FILLER_0_19_100
*1076 FILLER_0_19_102
*1077 FILLER_0_19_12
*1078 FILLER_0_19_134
*1079 FILLER_0_19_138
*1080 FILLER_0_19_142
*1081 FILLER_0_19_150
*1082 FILLER_0_19_169
*1083 FILLER_0_19_173
*1084 FILLER_0_19_187
*1085 FILLER_0_19_189
*1086 FILLER_0_19_2
*1087 FILLER_0_19_212
*1088 FILLER_0_19_36
*1089 FILLER_0_19_46
*1090 FILLER_0_19_50
*1091 FILLER_0_19_52
*1092 FILLER_0_19_59
*1093 FILLER_0_19_66
*1094 FILLER_0_19_72
*1095 FILLER_0_19_80
*1096 FILLER_0_19_82
*1097 FILLER_0_19_96
*1098 FILLER_0_1_129
*1099 FILLER_0_1_131
*1100 FILLER_0_1_171
*1101 FILLER_0_1_278
*1102 FILLER_0_1_68
*1103 FILLER_0_1_72
*1104 FILLER_0_20_101
*1105 FILLER_0_20_107
*1106 FILLER_0_20_148
*1107 FILLER_0_20_152
*1108 FILLER_0_20_156
*1109 FILLER_0_20_159
*1110 FILLER_0_20_163
*1111 FILLER_0_20_167
*1112 FILLER_0_20_171
*1113 FILLER_0_20_177
*1114 FILLER_0_20_181
*1115 FILLER_0_20_185
*1116 FILLER_0_20_189
*1117 FILLER_0_20_217
*1118 FILLER_0_20_229
*1119 FILLER_0_20_279
*1120 FILLER_0_20_283
*1121 FILLER_0_20_285
*1122 FILLER_0_20_31
*1123 FILLER_0_20_42
*1124 FILLER_0_20_63
*1125 FILLER_0_20_65
*1126 FILLER_0_20_71
*1127 FILLER_0_20_75
*1128 FILLER_0_20_79
*1129 FILLER_0_20_93
*1130 FILLER_0_21_102
*1131 FILLER_0_21_106
*1132 FILLER_0_21_121
*1133 FILLER_0_21_127
*1134 FILLER_0_21_129
*1135 FILLER_0_21_135
*1136 FILLER_0_21_137
*1137 FILLER_0_21_171
*1138 FILLER_0_21_177
*1139 FILLER_0_21_179
*1140 FILLER_0_21_18
*1141 FILLER_0_21_182
*1142 FILLER_0_21_2
*1143 FILLER_0_21_207
*1144 FILLER_0_21_209
*1145 FILLER_0_21_212
*1146 FILLER_0_21_262
*1147 FILLER_0_21_31
*1148 FILLER_0_21_67
*1149 FILLER_0_21_69
*1150 FILLER_0_21_72
*1151 FILLER_0_22_136
*1152 FILLER_0_22_140
*1153 FILLER_0_22_152
*1154 FILLER_0_22_154
*1155 FILLER_0_22_170
*1156 FILLER_0_22_172
*1157 FILLER_0_22_18
*1158 FILLER_0_22_2
*1159 FILLER_0_22_206
*1160 FILLER_0_22_22
*1161 FILLER_0_22_31
*1162 FILLER_0_22_42
*1163 FILLER_0_22_80
*1164 FILLER_0_22_82
*1165 FILLER_0_22_88
*1166 FILLER_0_22_90
*1167 FILLER_0_22_93
*1168 FILLER_0_22_97
*1169 FILLER_0_23_107
*1170 FILLER_0_23_109
*1171 FILLER_0_23_118
*1172 FILLER_0_23_122
*1173 FILLER_0_23_128
*1174 FILLER_0_23_132
*1175 FILLER_0_23_136
*1176 FILLER_0_23_142
*1177 FILLER_0_23_146
*1178 FILLER_0_23_150
*1179 FILLER_0_23_185
*1180 FILLER_0_23_256
*1181 FILLER_0_23_277
*1182 FILLER_0_23_279
*1183 FILLER_0_23_282
*1184 FILLER_0_23_39
*1185 FILLER_0_23_51
*1186 FILLER_0_23_66
*1187 FILLER_0_23_77
*1188 FILLER_0_23_79
*1189 FILLER_0_23_82
*1190 FILLER_0_23_84
*1191 FILLER_0_23_91
*1192 FILLER_0_23_93
*1193 FILLER_0_24_127
*1194 FILLER_0_24_145
*1195 FILLER_0_24_149
*1196 FILLER_0_24_152
*1197 FILLER_0_24_163
*1198 FILLER_0_24_167
*1199 FILLER_0_24_177
*1200 FILLER_0_24_244
*1201 FILLER_0_24_247
*1202 FILLER_0_24_31
*1203 FILLER_0_24_98
*1204 FILLER_0_25_139
*1205 FILLER_0_25_142
*1206 FILLER_0_25_146
*1207 FILLER_0_25_148
*1208 FILLER_0_25_175
*1209 FILLER_0_25_177
*1210 FILLER_0_25_18
*1211 FILLER_0_25_198
*1212 FILLER_0_25_2
*1213 FILLER_0_25_208
*1214 FILLER_0_25_26
*1215 FILLER_0_25_30
*1216 FILLER_0_25_45
*1217 FILLER_0_25_59
*1218 FILLER_0_25_63
*1219 FILLER_0_25_78
*1220 FILLER_0_26_107
*1221 FILLER_0_26_117
*1222 FILLER_0_26_141
*1223 FILLER_0_26_143
*1224 FILLER_0_26_172
*1225 FILLER_0_26_174
*1226 FILLER_0_26_183
*1227 FILLER_0_26_236
*1228 FILLER_0_26_33
*1229 FILLER_0_26_37
*1230 FILLER_0_26_68
*1231 FILLER_0_26_72
*1232 FILLER_0_26_74
*1233 FILLER_0_27_114
*1234 FILLER_0_27_147
*1235 FILLER_0_27_149
*1236 FILLER_0_27_218
*1237 FILLER_0_27_271
*1238 FILLER_0_27_31
*1239 FILLER_0_27_33
*1240 FILLER_0_27_42
*1241 FILLER_0_27_69
*1242 FILLER_0_27_80
*1243 FILLER_0_27_87
*1244 FILLER_0_27_91
*1245 FILLER_0_27_94
*1246 FILLER_0_28_107
*1247 FILLER_0_28_151
*1248 FILLER_0_28_168
*1249 FILLER_0_28_174
*1250 FILLER_0_28_18
*1251 FILLER_0_28_2
*1252 FILLER_0_28_20
*1253 FILLER_0_28_37
*1254 FILLER_0_28_58
*1255 FILLER_0_28_66
*1256 FILLER_0_28_68
*1257 FILLER_0_28_93
*1258 FILLER_0_29_142
*1259 FILLER_0_29_176
*1260 FILLER_0_29_178
*1261 FILLER_0_29_18
*1262 FILLER_0_29_2
*1263 FILLER_0_29_212
*1264 FILLER_0_29_239
*1265 FILLER_0_29_26
*1266 FILLER_0_29_282
*1267 FILLER_0_29_39
*1268 FILLER_0_29_59
*1269 FILLER_0_29_69
*1270 FILLER_0_29_72
*1271 FILLER_0_29_91
*1272 FILLER_0_2_104
*1273 FILLER_0_2_107
*1274 FILLER_0_2_167
*1275 FILLER_0_2_171
*1276 FILLER_0_2_177
*1277 FILLER_0_2_2
*1278 FILLER_0_2_230
*1279 FILLER_0_2_232
*1280 FILLER_0_2_255
*1281 FILLER_0_2_37
*1282 FILLER_0_30_10
*1283 FILLER_0_30_2
*1284 FILLER_0_30_20
*1285 FILLER_0_30_209
*1286 FILLER_0_30_211
*1287 FILLER_0_30_28
*1288 FILLER_0_30_67
*1289 FILLER_0_30_69
*1290 FILLER_0_30_90
*1291 FILLER_0_31_139
*1292 FILLER_0_31_142
*1293 FILLER_0_31_282
*1294 FILLER_0_31_31
*1295 FILLER_0_31_35
*1296 FILLER_0_31_39
*1297 FILLER_0_31_54
*1298 FILLER_0_31_58
*1299 FILLER_0_31_62
*1300 FILLER_0_31_66
*1301 FILLER_0_32_174
*1302 FILLER_0_32_177
*1303 FILLER_0_32_244
*1304 FILLER_0_32_31
*1305 FILLER_0_32_37
*1306 FILLER_0_32_51
*1307 FILLER_0_32_53
*1308 FILLER_0_32_60
*1309 FILLER_0_32_62
*1310 FILLER_0_32_65
*1311 FILLER_0_32_69
*1312 FILLER_0_33_123
*1313 FILLER_0_33_125
*1314 FILLER_0_33_137
*1315 FILLER_0_33_139
*1316 FILLER_0_33_18
*1317 FILLER_0_33_2
*1318 FILLER_0_33_212
*1319 FILLER_0_33_26
*1320 FILLER_0_33_279
*1321 FILLER_0_33_282
*1322 FILLER_0_33_30
*1323 FILLER_0_33_34
*1324 FILLER_0_33_44
*1325 FILLER_0_33_46
*1326 FILLER_0_33_49
*1327 FILLER_0_33_72
*1328 FILLER_0_33_82
*1329 FILLER_0_34_107
*1330 FILLER_0_34_125
*1331 FILLER_0_34_156
*1332 FILLER_0_34_2
*1333 FILLER_0_34_243
*1334 FILLER_0_34_247
*1335 FILLER_0_35_101
*1336 FILLER_0_35_104
*1337 FILLER_0_35_11
*1338 FILLER_0_35_17
*1339 FILLER_0_35_19
*1340 FILLER_0_35_2
*1341 FILLER_0_35_269
*1342 FILLER_0_35_271
*1343 FILLER_0_35_285
*1344 FILLER_0_35_36
*1345 FILLER_0_3_150
*1346 FILLER_0_3_154
*1347 FILLER_0_3_209
*1348 FILLER_0_3_228
*1349 FILLER_0_3_235
*1350 FILLER_0_3_279
*1351 FILLER_0_3_31
*1352 FILLER_0_3_69
*1353 FILLER_0_3_72
*1354 FILLER_0_3_78
*1355 FILLER_0_4_107
*1356 FILLER_0_4_145
*1357 FILLER_0_4_177
*1358 FILLER_0_4_179
*1359 FILLER_0_4_209
*1360 FILLER_0_4_225
*1361 FILLER_0_4_238
*1362 FILLER_0_4_247
*1363 FILLER_0_4_249
*1364 FILLER_0_4_272
*1365 FILLER_0_4_28
*1366 FILLER_0_4_37
*1367 FILLER_0_4_77
*1368 FILLER_0_4_96
*1369 FILLER_0_5_101
*1370 FILLER_0_5_103
*1371 FILLER_0_5_163
*1372 FILLER_0_5_167
*1373 FILLER_0_5_171
*1374 FILLER_0_5_175
*1375 FILLER_0_5_192
*1376 FILLER_0_5_199
*1377 FILLER_0_5_2
*1378 FILLER_0_5_203
*1379 FILLER_0_5_206
*1380 FILLER_0_5_218
*1381 FILLER_0_5_222
*1382 FILLER_0_5_231
*1383 FILLER_0_5_238
*1384 FILLER_0_5_253
*1385 FILLER_0_5_277
*1386 FILLER_0_5_279
*1387 FILLER_0_5_282
*1388 FILLER_0_5_4
*1389 FILLER_0_5_45
*1390 FILLER_0_5_69
*1391 FILLER_0_6_157
*1392 FILLER_0_6_159
*1393 FILLER_0_6_174
*1394 FILLER_0_6_177
*1395 FILLER_0_6_181
*1396 FILLER_0_6_184
*1397 FILLER_0_6_188
*1398 FILLER_0_6_212
*1399 FILLER_0_6_216
*1400 FILLER_0_6_220
*1401 FILLER_0_6_224
*1402 FILLER_0_6_228
*1403 FILLER_0_6_253
*1404 FILLER_0_6_31
*1405 FILLER_0_6_37
*1406 FILLER_0_6_96
*1407 FILLER_0_6_98
*1408 FILLER_0_7_101
*1409 FILLER_0_7_107
*1410 FILLER_0_7_138
*1411 FILLER_0_7_155
*1412 FILLER_0_7_185
*1413 FILLER_0_7_189
*1414 FILLER_0_7_193
*1415 FILLER_0_7_209
*1416 FILLER_0_7_255
*1417 FILLER_0_7_279
*1418 FILLER_0_7_282
*1419 FILLER_0_7_39
*1420 FILLER_0_7_69
*1421 FILLER_0_8_102
*1422 FILLER_0_8_104
*1423 FILLER_0_8_107
*1424 FILLER_0_8_109
*1425 FILLER_0_8_163
*1426 FILLER_0_8_173
*1427 FILLER_0_8_177
*1428 FILLER_0_8_185
*1429 FILLER_0_8_194
*1430 FILLER_0_8_2
*1431 FILLER_0_8_211
*1432 FILLER_0_8_244
*1433 FILLER_0_8_255
*1434 FILLER_0_8_31
*1435 FILLER_0_8_37
*1436 FILLER_0_8_98
*1437 FILLER_0_9_133
*1438 FILLER_0_9_137
*1439 FILLER_0_9_139
*1440 FILLER_0_9_150
*1441 FILLER_0_9_158
*1442 FILLER_0_9_180
*1443 FILLER_0_9_2
*1444 FILLER_0_9_228
*1445 FILLER_0_9_23
*1446 FILLER_0_9_279
*1447 FILLER_0_9_282
*1448 FILLER_0_9_29
*1449 FILLER_0_9_33
*1450 FILLER_0_9_39
*1451 FILLER_0_9_43
*1452 FILLER_0_9_63
*1453 FILLER_0_9_67
*1454 FILLER_0_9_69
*1455 FILLER_0_9_72
*1456 FILLER_0_9_76
*1457 PHY_EDGE_ROW_0_Left_36
*1458 PHY_EDGE_ROW_0_Right_0
*1459 PHY_EDGE_ROW_10_Left_46
*1460 PHY_EDGE_ROW_10_Right_10
*1461 PHY_EDGE_ROW_11_Left_47
*1462 PHY_EDGE_ROW_11_Right_11
*1463 PHY_EDGE_ROW_12_Left_48
*1464 PHY_EDGE_ROW_12_Right_12
*1465 PHY_EDGE_ROW_13_Left_49
*1466 PHY_EDGE_ROW_13_Right_13
*1467 PHY_EDGE_ROW_14_Left_50
*1468 PHY_EDGE_ROW_14_Right_14
*1469 PHY_EDGE_ROW_15_Left_51
*1470 PHY_EDGE_ROW_15_Right_15
*1471 PHY_EDGE_ROW_16_Left_52
*1472 PHY_EDGE_ROW_16_Right_16
*1473 PHY_EDGE_ROW_17_Left_53
*1474 PHY_EDGE_ROW_17_Right_17
*1475 PHY_EDGE_ROW_18_Left_54
*1476 PHY_EDGE_ROW_18_Right_18
*1477 PHY_EDGE_ROW_19_Left_55
*1478 PHY_EDGE_ROW_19_Right_19
*1479 PHY_EDGE_ROW_1_Left_37
*1480 PHY_EDGE_ROW_1_Right_1
*1481 PHY_EDGE_ROW_20_Left_56
*1482 PHY_EDGE_ROW_20_Right_20
*1483 PHY_EDGE_ROW_21_Left_57
*1484 PHY_EDGE_ROW_21_Right_21
*1485 PHY_EDGE_ROW_22_Left_58
*1486 PHY_EDGE_ROW_22_Right_22
*1487 PHY_EDGE_ROW_23_Left_59
*1488 PHY_EDGE_ROW_23_Right_23
*1489 PHY_EDGE_ROW_24_Left_60
*1490 PHY_EDGE_ROW_24_Right_24
*1491 PHY_EDGE_ROW_25_Left_61
*1492 PHY_EDGE_ROW_25_Right_25
*1493 PHY_EDGE_ROW_26_Left_62
*1494 PHY_EDGE_ROW_26_Right_26
*1495 PHY_EDGE_ROW_27_Left_63
*1496 PHY_EDGE_ROW_27_Right_27
*1497 PHY_EDGE_ROW_28_Left_64
*1498 PHY_EDGE_ROW_28_Right_28
*1499 PHY_EDGE_ROW_29_Left_65
*1500 PHY_EDGE_ROW_29_Right_29
*1501 PHY_EDGE_ROW_2_Left_38
*1502 PHY_EDGE_ROW_2_Right_2
*1503 PHY_EDGE_ROW_30_Left_66
*1504 PHY_EDGE_ROW_30_Right_30
*1505 PHY_EDGE_ROW_31_Left_67
*1506 PHY_EDGE_ROW_31_Right_31
*1507 PHY_EDGE_ROW_32_Left_68
*1508 PHY_EDGE_ROW_32_Right_32
*1509 PHY_EDGE_ROW_33_Left_69
*1510 PHY_EDGE_ROW_33_Right_33
*1511 PHY_EDGE_ROW_34_Left_70
*1512 PHY_EDGE_ROW_34_Right_34
*1513 PHY_EDGE_ROW_35_Left_71
*1514 PHY_EDGE_ROW_35_Right_35
*1515 PHY_EDGE_ROW_3_Left_39
*1516 PHY_EDGE_ROW_3_Right_3
*1517 PHY_EDGE_ROW_4_Left_40
*1518 PHY_EDGE_ROW_4_Right_4
*1519 PHY_EDGE_ROW_5_Left_41
*1520 PHY_EDGE_ROW_5_Right_5
*1521 PHY_EDGE_ROW_6_Left_42
*1522 PHY_EDGE_ROW_6_Right_6
*1523 PHY_EDGE_ROW_7_Left_43
*1524 PHY_EDGE_ROW_7_Right_7
*1525 PHY_EDGE_ROW_8_Left_44
*1526 PHY_EDGE_ROW_8_Right_8
*1527 PHY_EDGE_ROW_9_Left_45
*1528 PHY_EDGE_ROW_9_Right_9
*1529 TAP_TAPCELL_ROW_0_72
*1530 TAP_TAPCELL_ROW_0_73
*1531 TAP_TAPCELL_ROW_0_74
*1532 TAP_TAPCELL_ROW_0_75
*1533 TAP_TAPCELL_ROW_0_76
*1534 TAP_TAPCELL_ROW_0_77
*1535 TAP_TAPCELL_ROW_0_78
*1536 TAP_TAPCELL_ROW_0_79
*1537 TAP_TAPCELL_ROW_10_116
*1538 TAP_TAPCELL_ROW_10_117
*1539 TAP_TAPCELL_ROW_10_118
*1540 TAP_TAPCELL_ROW_10_119
*1541 TAP_TAPCELL_ROW_11_120
*1542 TAP_TAPCELL_ROW_11_121
*1543 TAP_TAPCELL_ROW_11_122
*1544 TAP_TAPCELL_ROW_11_123
*1545 TAP_TAPCELL_ROW_12_124
*1546 TAP_TAPCELL_ROW_12_125
*1547 TAP_TAPCELL_ROW_12_126
*1548 TAP_TAPCELL_ROW_12_127
*1549 TAP_TAPCELL_ROW_13_128
*1550 TAP_TAPCELL_ROW_13_129
*1551 TAP_TAPCELL_ROW_13_130
*1552 TAP_TAPCELL_ROW_13_131
*1553 TAP_TAPCELL_ROW_14_132
*1554 TAP_TAPCELL_ROW_14_133
*1555 TAP_TAPCELL_ROW_14_134
*1556 TAP_TAPCELL_ROW_14_135
*1557 TAP_TAPCELL_ROW_15_136
*1558 TAP_TAPCELL_ROW_15_137
*1559 TAP_TAPCELL_ROW_15_138
*1560 TAP_TAPCELL_ROW_15_139
*1561 TAP_TAPCELL_ROW_16_140
*1562 TAP_TAPCELL_ROW_16_141
*1563 TAP_TAPCELL_ROW_16_142
*1564 TAP_TAPCELL_ROW_16_143
*1565 TAP_TAPCELL_ROW_17_144
*1566 TAP_TAPCELL_ROW_17_145
*1567 TAP_TAPCELL_ROW_17_146
*1568 TAP_TAPCELL_ROW_17_147
*1569 TAP_TAPCELL_ROW_18_148
*1570 TAP_TAPCELL_ROW_18_149
*1571 TAP_TAPCELL_ROW_18_150
*1572 TAP_TAPCELL_ROW_18_151
*1573 TAP_TAPCELL_ROW_19_152
*1574 TAP_TAPCELL_ROW_19_153
*1575 TAP_TAPCELL_ROW_19_154
*1576 TAP_TAPCELL_ROW_19_155
*1577 TAP_TAPCELL_ROW_1_80
*1578 TAP_TAPCELL_ROW_1_81
*1579 TAP_TAPCELL_ROW_1_82
*1580 TAP_TAPCELL_ROW_1_83
*1581 TAP_TAPCELL_ROW_20_156
*1582 TAP_TAPCELL_ROW_20_157
*1583 TAP_TAPCELL_ROW_20_158
*1584 TAP_TAPCELL_ROW_20_159
*1585 TAP_TAPCELL_ROW_21_160
*1586 TAP_TAPCELL_ROW_21_161
*1587 TAP_TAPCELL_ROW_21_162
*1588 TAP_TAPCELL_ROW_21_163
*1589 TAP_TAPCELL_ROW_22_164
*1590 TAP_TAPCELL_ROW_22_165
*1591 TAP_TAPCELL_ROW_22_166
*1592 TAP_TAPCELL_ROW_22_167
*1593 TAP_TAPCELL_ROW_23_168
*1594 TAP_TAPCELL_ROW_23_169
*1595 TAP_TAPCELL_ROW_23_170
*1596 TAP_TAPCELL_ROW_23_171
*1597 TAP_TAPCELL_ROW_24_172
*1598 TAP_TAPCELL_ROW_24_173
*1599 TAP_TAPCELL_ROW_24_174
*1600 TAP_TAPCELL_ROW_24_175
*1601 TAP_TAPCELL_ROW_25_176
*1602 TAP_TAPCELL_ROW_25_177
*1603 TAP_TAPCELL_ROW_25_178
*1604 TAP_TAPCELL_ROW_25_179
*1605 TAP_TAPCELL_ROW_26_180
*1606 TAP_TAPCELL_ROW_26_181
*1607 TAP_TAPCELL_ROW_26_182
*1608 TAP_TAPCELL_ROW_26_183
*1609 TAP_TAPCELL_ROW_27_184
*1610 TAP_TAPCELL_ROW_27_185
*1611 TAP_TAPCELL_ROW_27_186
*1612 TAP_TAPCELL_ROW_27_187
*1613 TAP_TAPCELL_ROW_28_188