*SPEF "ieee 1481-1999"
*DESIGN "wrapped_mc14500"
*DATE "11:11:11 Fri 11 11, 1111"
*VENDOR "OpenRCX"
*PROGRAM "Parallel Extraction"
*VERSION "1.0"
*DESIGN_FLOW "NAME_SCOPE LOCAL" "PIN_CAP NONE"
*DIVIDER /
*DELIMITER :
*BUS_DELIMITER []
*T_UNIT 1 NS
*C_UNIT 1 PF
*R_UNIT 1 OHM
*L_UNIT 1 HENRY

*NAME_MAP
*1 SDI
*2 clk_i
*3 custom_setting
*4 io_in[0]
*5 io_in[1]
*6 io_in[2]
*7 io_in[3]
*8 io_in[4]
*9 io_in[5]
*10 io_in[6]
*11 io_in[7]
*12 net67
*13 io_out[10]
*14 io_out[11]
*15 io_out[12]
*16 io_out[13]
*17 io_out[14]
*18 io_out[15]
*19 io_out[16]
*20 io_out[17]
*21 io_out[18]
*22 io_out[19]
*23 net68
*24 io_out[20]
*25 io_out[21]
*26 io_out[22]
*27 io_out[23]
*28 io_out[24]
*29 io_out[25]
*30 io_out[26]
*31 io_out[27]
*32 io_out[28]
*33 io_out[29]
*34 net69
*35 io_out[30]
*36 net70
*37 net71
*38 net72
*39 net73
*40 net74
*41 io_out[8]
*42 io_out[9]
*43 rst_n
*44 sram_addr[0]
*45 sram_addr[1]
*46 sram_addr[2]
*47 sram_addr[3]
*48 sram_addr[4]
*49 sram_addr[5]
*50 sram_gwe
*51 sram_in[0]
*52 sram_in[1]
*53 sram_in[2]
*54 sram_in[3]
*55 sram_in[4]
*56 sram_in[5]
*57 sram_in[6]
*58 sram_in[7]
*59 sram_out[0]
*60 sram_out[1]
*61 sram_out[2]
*62 sram_out[3]
*63 sram_out[4]
*64 sram_out[5]
*65 sram_out[6]
*66 sram_out[7]
*69 _0000_
*70 _0001_
*71 _0002_
*72 _0003_
*73 _0004_
*74 _0005_
*75 _0006_
*76 _0007_
*77 _0008_
*78 _0009_
*79 _0010_
*80 _0011_
*81 _0012_
*82 _0013_
*83 _0014_
*84 _0015_
*85 _0016_
*86 _0017_
*87 _0018_
*88 _0019_
*89 _0020_
*90 _0021_
*91 _0022_
*92 _0023_
*93 _0024_
*94 _0025_
*95 _0026_
*96 _0027_
*97 _0028_
*98 _0029_
*99 _0030_
*100 _0031_
*101 _0032_
*102 _0033_
*103 _0034_
*104 _0035_
*105 _0036_
*106 _0037_
*107 _0038_
*108 _0039_
*109 _0040_
*110 _0041_
*111 _0042_
*112 _0043_
*113 _0044_
*114 _0045_
*115 _0046_
*116 _0047_
*117 _0048_
*118 _0049_
*119 _0050_
*120 _0051_
*121 _0052_
*122 _0053_
*123 _0054_
*124 _0055_
*125 _0056_
*126 _0057_
*127 _0058_
*128 _0059_
*129 _0060_
*130 _0061_
*131 _0062_
*132 _0063_
*133 _0064_
*134 _0065_
*135 _0066_
*136 _0067_
*137 _0068_
*138 _0069_
*139 _0070_
*140 _0071_
*141 _0072_
*142 _0073_
*143 _0074_
*144 _0075_
*145 _0076_
*146 _0077_
*147 _0078_
*148 _0079_
*149 _0080_
*150 _0081_
*151 _0082_
*152 _0083_
*153 _0084_
*154 _0085_
*155 _0086_
*156 _0087_
*157 _0088_
*158 _0089_
*159 _0090_
*160 _0091_
*161 _0092_
*162 _0093_
*163 _0094_
*164 _0095_
*165 _0096_
*166 _0097_
*167 _0098_
*168 _0099_
*169 _0100_
*170 _0101_
*171 _0102_
*172 _0103_
*173 _0104_
*174 _0105_
*175 _0106_
*176 _0107_
*177 _0108_
*178 _0109_
*179 _0110_
*180 _0111_
*181 _0112_
*182 _0113_
*183 _0114_
*184 _0115_
*185 _0116_
*186 _0117_
*187 _0118_
*188 _0119_
*189 _0120_
*190 _0121_
*191 _0122_
*192 _0123_
*193 _0124_
*194 _0125_
*195 _0126_
*196 _0127_
*197 _0128_
*198 _0129_
*199 _0130_
*200 _0131_
*201 _0132_
*202 _0133_
*203 _0134_
*204 _0135_
*205 _0136_
*206 _0137_
*207 _0138_
*208 _0139_
*209 _0140_
*210 _0141_
*211 _0142_
*212 _0143_
*213 _0144_
*214 _0145_
*215 _0146_
*216 _0147_
*217 _0148_
*218 _0149_
*219 _0150_
*220 _0151_
*221 _0152_
*222 _0153_
*223 _0154_
*224 _0155_
*225 _0156_
*226 _0157_
*227 _0158_
*228 _0159_
*229 _0160_
*230 _0161_
*231 _0162_
*232 _0163_
*233 _0164_
*234 _0165_
*235 _0166_
*236 _0167_
*237 _0168_
*238 _0169_
*239 _0170_
*240 _0171_
*241 _0172_
*242 _0173_
*243 _0174_
*244 _0175_
*245 _0176_
*246 _0177_
*247 _0178_
*248 _0179_
*249 _0180_
*250 _0181_
*251 _0182_
*252 _0183_
*253 _0184_
*254 _0185_
*255 _0186_
*256 _0187_
*257 _0188_
*258 _0189_
*259 _0190_
*260 _0191_
*261 _0192_
*262 _0193_
*263 _0194_
*264 _0195_
*265 _0196_
*266 _0197_
*267 _0198_
*268 _0199_
*269 _0200_
*270 _0201_
*271 _0202_
*272 _0203_
*273 _0204_
*274 _0205_
*275 _0206_
*276 _0207_
*277 _0208_
*278 _0209_
*279 _0210_
*280 _0211_
*281 _0212_
*282 _0213_
*283 _0214_
*284 _0215_
*285 _0216_
*286 _0217_
*287 _0218_
*288 _0219_
*289 _0220_
*290 _0221_
*291 _0222_
*292 _0223_
*293 _0224_
*294 _0225_
*295 _0226_
*296 _0227_
*297 _0228_
*298 _0229_
*299 _0230_
*300 _0231_
*301 _0232_
*302 _0233_
*303 _0234_
*304 _0235_
*305 _0236_
*306 _0237_
*307 _0238_
*308 _0239_
*309 _0240_
*310 _0241_
*311 _0242_
*312 _0243_
*313 _0244_
*314 _0245_
*315 _0246_
*316 _0247_
*317 _0248_
*318 _0249_
*319 _0250_
*320 _0251_
*321 _0252_
*322 _0253_
*323 _0254_
*324 _0255_
*325 _0256_
*326 _0257_
*327 _0258_
*328 _0259_
*329 _0260_
*330 _0261_
*331 _0262_
*332 _0263_
*333 _0264_
*334 _0265_
*335 _0266_
*336 _0267_
*337 _0268_
*338 _0269_
*339 _0270_
*340 _0271_
*341 _0272_
*342 _0273_
*343 _0274_
*344 _0275_
*345 _0276_
*346 _0277_
*347 _0278_
*348 _0279_
*349 _0280_
*350 _0281_
*351 _0282_
*352 _0283_
*353 _0284_
*354 _0285_
*355 _0286_
*356 _0287_
*357 _0288_
*358 _0289_
*359 _0290_
*360 _0291_
*361 _0292_
*362 _0293_
*363 _0294_
*364 _0295_
*365 _0296_
*366 _0297_
*367 _0298_
*368 _0299_
*369 _0300_
*370 _0301_
*371 _0302_
*372 _0303_
*373 _0304_
*374 _0305_
*375 _0306_
*376 _0307_
*377 _0308_
*378 _0309_
*379 _0310_
*380 _0311_
*381 _0312_
*382 _0313_
*383 _0314_
*384 _0315_
*385 _0316_
*386 _0317_
*387 _0318_
*388 _0319_
*389 _0320_
*390 _0321_
*391 _0322_
*392 _0323_
*393 _0324_
*394 _0325_
*395 _0326_
*396 _0327_
*397 _0328_
*398 _0329_
*399 _0330_
*400 _0331_
*401 _0332_
*402 _0333_
*403 _0334_
*404 _0335_
*405 _0336_
*406 _0337_
*407 _0338_
*408 _0339_
*409 _0340_
*410 _0341_
*411 _0342_
*412 _0343_
*413 _0344_
*414 _0345_
*415 _0346_
*416 _0347_
*417 _0348_
*418 _0349_
*419 _0350_
*420 _0351_
*421 _0352_
*422 _0353_
*423 _0354_
*424 _0355_
*425 _0356_
*426 _0357_
*427 _0358_
*428 _0359_
*429 _0360_
*430 _0361_
*431 _0362_
*432 _0363_
*433 _0364_
*434 _0365_
*435 _0366_
*436 _0367_
*437 _0368_
*438 _0369_
*439 _0370_
*440 _0371_
*441 _0372_
*442 _0373_
*443 _0374_
*444 _0375_
*445 _0376_
*446 _0377_
*447 _0378_
*448 _0379_
*449 _0380_
*450 _0381_
*451 _0382_
*452 _0383_
*453 _0384_
*454 _0385_
*455 _0386_
*456 _0387_
*457 _0388_
*458 _0389_
*459 _0390_
*460 _0391_
*461 _0392_
*462 _0393_
*463 _0394_
*464 _0395_
*465 _0396_
*466 _0397_
*467 _0398_
*468 _0399_
*469 _0400_
*470 _0401_
*471 _0402_
*472 _0403_
*473 _0404_
*474 _0405_
*475 _0406_
*476 _0407_
*477 _0408_
*478 _0409_
*479 _0410_
*480 _0411_
*481 _0412_
*482 _0413_
*483 _0414_
*484 _0415_
*485 _0416_
*486 _0417_
*487 _0418_
*488 _0419_
*489 _0420_
*490 _0421_
*491 _0422_
*492 _0423_
*493 _0424_
*494 _0425_
*495 _0426_
*496 _0427_
*497 _0428_
*498 _0429_
*499 _0430_
*500 _0431_
*501 _0432_
*502 _0433_
*503 _0434_
*504 _0435_
*505 _0436_
*506 _0437_
*507 _0438_
*508 _0439_
*509 _0440_
*510 _0441_
*511 _0442_
*512 _0443_
*513 _0444_
*514 _0445_
*515 _0446_
*516 _0447_
*517 _0448_
*518 _0449_
*519 _0450_
*520 _0451_
*521 _0452_
*522 _0453_
*523 _0454_
*524 _0455_
*525 _0456_
*526 _0457_
*527 _0458_
*528 _0459_
*529 _0460_
*530 _0461_
*531 _0462_
*532 _0463_
*533 _0464_
*534 _0465_
*535 _0466_
*536 _0467_
*537 _0468_
*538 _0469_
*539 _0470_
*540 _0471_
*541 _0472_
*542 _0473_
*543 _0474_
*544 _0475_
*545 _0476_
*546 _0477_
*547 _0478_
*548 _0479_
*549 _0480_
*550 _0481_
*551 _0482_
*552 _0483_
*553 _0484_
*554 _0485_
*555 _0486_
*556 _0487_
*557 _0488_
*558 _0489_
*559 _0490_
*560 _0491_
*561 _0492_
*562 _0493_
*563 _0494_
*564 _0495_
*565 _0496_
*566 _0497_
*567 _0498_
*568 _0499_
*569 _0500_
*570 _0501_
*571 _0502_
*572 _0503_
*573 _0504_
*574 _0505_
*575 _0506_
*576 _0507_
*577 _0508_
*578 _0509_
*579 _0510_
*580 clknet_0_clk_i
*581 clknet_3_0__leaf_clk_i
*582 clknet_3_1__leaf_clk_i
*583 clknet_3_2__leaf_clk_i
*584 clknet_3_3__leaf_clk_i
*585 clknet_3_4__leaf_clk_i
*586 clknet_3_5__leaf_clk_i
*587 clknet_3_6__leaf_clk_i
*588 clknet_3_7__leaf_clk_i
*589 dest\[0\]
*590 dest\[10\]
*591 dest\[11\]
*592 dest\[12\]
*593 dest\[13\]
*594 dest\[14\]
*595 dest\[15\]
*596 dest\[16\]
*597 dest\[1\]
*598 dest\[2\]
*599 dest\[3\]
*600 dest\[4\]
*601 dest\[5\]
*602 dest\[6\]
*603 dest\[7\]
*604 dest\[8\]
*605 dest\[9\]
*606 dia\[0\]
*607 dia\[1\]
*608 dia\[2\]
*609 dia\[3\]
*610 dia\[4\]
*611 dia\[5\]
*612 dia\[6\]
*613 dia\[7\]
*614 dib\[0\]
*615 dib\[1\]
*616 dib\[2\]
*617 dib\[3\]
*618 dib\[4\]
*619 dib\[5\]
*620 dib\[6\]
*621 dib\[7\]
*622 mar\[0\]
*623 mar\[1\]
*624 mc14500\.DATA_OUT
*625 mc14500\.IEN_l
*626 mc14500\.OEN_l
*627 mc14500\.X1
*628 mc14500\.instr_l\[0\]
*629 mc14500\.instr_l\[1\]
*630 mc14500\.instr_l\[2\]
*631 mc14500\.instr_l\[3\]
*632 mc14500\.skip
*633 net1
*634 net10
*635 net11
*636 net12
*637 net13
*638 net14
*639 net15
*640 net16
*641 net17
*642 net18
*643 net19
*644 net2
*645 net20
*646 net21
*647 net22
*648 net23
*649 net24
*650 net25
*651 net26
*652 net27
*653 net28
*654 net29
*655 net3
*656 net30
*657 net31
*658 net32
*659 net33
*660 net34
*661 net35
*662 net36
*663 net37
*664 net38
*665 net39
*666 net4
*667 net40
*668 net41
*669 net42
*670 net43
*671 net44
*672 net45
*673 net46
*674 net47
*675 net48
*676 net49
*677 net5
*678 net50
*679 net51
*680 net52
*681 net53
*682 net54
*683 net55
*684 net56
*685 net57
*686 net58
*687 net59
*688 net6
*689 net60
*690 net61
*691 net62
*692 net63
*693 net64
*694 net65
*695 net66
*696 net7
*697 net75
*698 net76
*699 net8
*700 net9
*701 rst_latency\[0\]
*702 rst_latency\[1\]
*703 scratch\[0\]
*704 scratch\[1\]
*705 scratch\[2\]
*706 scratch\[3\]
*707 scratch\[4\]
*708 scratch\[5\]
*709 ANTENNA__0524__I
*710 ANTENNA__0532__I
*711 ANTENNA__0533__I
*712 ANTENNA__0535__I
*713 ANTENNA__0537__I
*714 ANTENNA__0545__A1
*715 ANTENNA__0545__A2
*716 ANTENNA__0555__I
*717 ANTENNA__0557__I
*718 ANTENNA__0562__A3
*719 ANTENNA__0572__A1
*720 ANTENNA__0574__A1
*721 ANTENNA__0576__A1
*722 ANTENNA__0578__A1
*723 ANTENNA__0590__I
*724 ANTENNA__0592__B
*725 ANTENNA__0592__C
*726 ANTENNA__0597__I
*727 ANTENNA__0598__A1
*728 ANTENNA__0602__A1
*729 ANTENNA__0608__C
*730 ANTENNA__0611__A1
*731 ANTENNA__0618__A2
*732 ANTENNA__0619__A1
*733 ANTENNA__0622__A2
*734 ANTENNA__0623__A2
*735 ANTENNA__0636__B
*736 ANTENNA__0640__A1
*737 ANTENNA__0641__A1
*738 ANTENNA__0641__A2
*739 ANTENNA__0642__A1
*740 ANTENNA__0643__I
*741 ANTENNA__0644__I
*742 ANTENNA__0646__I
*743 ANTENNA__0647__B
*744 ANTENNA__0650__B
*745 ANTENNA__0653__A2
*746 ANTENNA__0654__A2
*747 ANTENNA__0654__A3
*748 ANTENNA__0655__I
*749 ANTENNA__0657__A2
*750 ANTENNA__0658__A1
*751 ANTENNA__0659__I
*752 ANTENNA__0660__A3
*753 ANTENNA__0661__I
*754 ANTENNA__0664__I
*755 ANTENNA__0674__I
*756 ANTENNA__0677__I
*757 ANTENNA__0679__A2
*758 ANTENNA__0682__A2
*759 ANTENNA__0685__A2
*760 ANTENNA__0689__A2
*761 ANTENNA__0692__A1
*762 ANTENNA__0692__A3
*763 ANTENNA__0737__I
*764 ANTENNA__0738__I
*765 ANTENNA__0743__A1
*766 ANTENNA__0743__A3
*767 ANTENNA__0763__I
*768 ANTENNA__0783__I
*769 ANTENNA__0784__B
*770 ANTENNA__0794__A1
*771 ANTENNA__0813__B
*772 ANTENNA__0818__A1
*773 ANTENNA__0825__B
*774 ANTENNA__0829__A1
*775 ANTENNA__0830__A1
*776 ANTENNA__0832__A1
*777 ANTENNA__0837__B
*778 ANTENNA__0838__A1
*779 ANTENNA__0842__B
*780 ANTENNA__0845__B
*781 ANTENNA__0892__I
*782 ANTENNA__0895__I
*783 ANTENNA__0904__B
*784 ANTENNA__0908__I
*785 ANTENNA__0920__C
*786 ANTENNA__0928__C
*787 ANTENNA__0934__C
*788 ANTENNA__0936__I
*789 ANTENNA__0941__B
*790 ANTENNA__0951__I
*791 ANTENNA__0961__C
*792 ANTENNA__0968__A1
*793 ANTENNA__0975__C
*794 ANTENNA__1000__B
*795 ANTENNA__1001__C
*796 ANTENNA__1002__A1
*797 ANTENNA__1003__B
*798 ANTENNA__1006__B
*799 ANTENNA__1008__I
*800 ANTENNA__1009__I
*801 ANTENNA__1011__I
*802 ANTENNA__1012__I
*803 ANTENNA__1040__CLK
*804 ANTENNA__1042__CLK
*805 ANTENNA__1043__CLK
*806 ANTENNA__1052__CLK
*807 ANTENNA__1062__CLK
*808 ANTENNA__1063__CLK
*809 ANTENNA__1064__CLK
*810 ANTENNA__1065__CLK
*811 ANTENNA__1074__CLK
*812 ANTENNA__1075__CLK
*813 ANTENNA__1076__CLK
*814 ANTENNA__1077__CLK
*815 ANTENNA__1078__CLK
*816 ANTENNA__1079__CLK
*817 ANTENNA__1080__CLK
*818 ANTENNA__1081__CLK
*819 ANTENNA__1082__CLK
*820 ANTENNA__1083__CLK
*821 ANTENNA__1084__CLK
*822 ANTENNA__1085__CLK
*823 ANTENNA__1086__CLK
*824 ANTENNA__1087__CLK
*825 ANTENNA__1088__CLK
*826 ANTENNA__1089__CLK
*827 ANTENNA__1090__CLK
*828 ANTENNA__1091__CLK
*829 ANTENNA__1092__CLK
*830 ANTENNA__1093__CLK
*831 ANTENNA__1094__CLK
*832 ANTENNA__1095__CLK
*833 ANTENNA__1096__CLK
*834 ANTENNA__1097__CLK
*835 ANTENNA__1098__CLK
*836 ANTENNA__1099__CLK
*837 ANTENNA__1100__CLK
*838 ANTENNA__1101__CLK
*839 ANTENNA__1102__CLK
*840 ANTENNA__1103__CLK
*841 ANTENNA__1104__CLK
*842 ANTENNA__1105__CLK
*843 ANTENNA_clkbuf_0_clk_i_I
*844 ANTENNA_clkbuf_3_0__f_clk_i_I
*845 ANTENNA_clkbuf_3_1__f_clk_i_I
*846 ANTENNA_clkbuf_3_2__f_clk_i_I
*847 ANTENNA_clkbuf_3_3__f_clk_i_I
*848 ANTENNA_clkbuf_3_4__f_clk_i_I
*849 ANTENNA_clkbuf_3_5__f_clk_i_I
*850 ANTENNA_clkbuf_3_6__f_clk_i_I
*851 ANTENNA_clkbuf_3_7__f_clk_i_I
*852 ANTENNA_input10_I
*853 ANTENNA_input11_I
*854 ANTENNA_input12_I
*855 ANTENNA_input13_I
*856 ANTENNA_input14_I
*857 ANTENNA_input15_I
*858 ANTENNA_input16_I
*859 ANTENNA_input17_I
*860 ANTENNA_input18_I
*861 ANTENNA_input19_I
*862 ANTENNA_input1_I
*863 ANTENNA_input2_I
*864 ANTENNA_input3_I
*865 ANTENNA_input4_I
*866 ANTENNA_input5_I
*867 ANTENNA_input6_I
*868 ANTENNA_input7_I
*869 ANTENNA_input8_I
*870 ANTENNA_input9_I
*871 ANTENNA_output33_I
*872 ANTENNA_output35_I
*873 FILLER_0_0_104
*874 FILLER_0_0_138
*875 FILLER_0_0_2
*876 FILLER_0_0_252
*877 FILLER_0_0_256
*878 FILLER_0_0_263
*879 FILLER_0_0_267
*880 FILLER_0_0_271
*881 FILLER_0_0_280
*882 FILLER_0_0_284
*883 FILLER_0_0_291
*884 FILLER_0_0_295
*885 FILLER_0_0_36
*886 FILLER_0_0_6
*887 FILLER_0_0_75
*888 FILLER_0_10_104
*889 FILLER_0_10_107
*890 FILLER_0_10_115
*891 FILLER_0_10_143
*892 FILLER_0_10_177
*893 FILLER_0_10_179
*894 FILLER_0_10_2
*895 FILLER_0_10_217
*896 FILLER_0_10_224
*897 FILLER_0_10_228
*898 FILLER_0_10_230
*899 FILLER_0_10_238
*900 FILLER_0_10_244
*901 FILLER_0_10_284
*902 FILLER_0_10_286
*903 FILLER_0_10_303
*904 FILLER_0_10_34
*905 FILLER_0_10_66
*906 FILLER_0_10_74
*907 FILLER_0_10_78
*908 FILLER_0_10_88
*909 FILLER_0_10_92
*910 FILLER_0_10_96
*911 FILLER_0_11_101
*912 FILLER_0_11_142
*913 FILLER_0_11_146
*914 FILLER_0_11_18
*915 FILLER_0_11_184
*916 FILLER_0_11_197
*917 FILLER_0_11_2
*918 FILLER_0_11_222
*919 FILLER_0_11_26
*920 FILLER_0_11_279
*921 FILLER_0_11_297
*922 FILLER_0_12_100
*923 FILLER_0_12_104
*924 FILLER_0_12_107
*925 FILLER_0_12_115
*926 FILLER_0_12_119
*927 FILLER_0_12_121
*928 FILLER_0_12_128
*929 FILLER_0_12_130
*930 FILLER_0_12_137
*931 FILLER_0_12_153
*932 FILLER_0_12_157
*933 FILLER_0_12_159
*934 FILLER_0_12_174
*935 FILLER_0_12_177
*936 FILLER_0_12_179
*937 FILLER_0_12_2
*938 FILLER_0_12_244
*939 FILLER_0_12_274
*940 FILLER_0_12_34
*941 FILLER_0_12_37
*942 FILLER_0_12_70
*943 FILLER_0_12_72
*944 FILLER_0_13_109
*945 FILLER_0_13_113
*946 FILLER_0_13_129
*947 FILLER_0_13_133
*948 FILLER_0_13_137
*949 FILLER_0_13_139
*950 FILLER_0_13_150
*951 FILLER_0_13_156
*952 FILLER_0_13_175
*953 FILLER_0_13_177
*954 FILLER_0_13_2
*955 FILLER_0_13_220
*956 FILLER_0_13_303
*957 FILLER_0_13_34
*958 FILLER_0_13_42
*959 FILLER_0_13_46
*960 FILLER_0_13_56
*961 FILLER_0_14_103
*962 FILLER_0_14_107
*963 FILLER_0_14_167
*964 FILLER_0_14_177
*965 FILLER_0_14_2
*966 FILLER_0_14_239
*967 FILLER_0_14_34
*968 FILLER_0_14_37
*969 FILLER_0_14_53
*970 FILLER_0_14_61
*971 FILLER_0_14_64
*972 FILLER_0_14_68
*973 FILLER_0_14_72
*974 FILLER_0_14_76
*975 FILLER_0_14_91
*976 FILLER_0_14_95
*977 FILLER_0_15_104
*978 FILLER_0_15_125
*979 FILLER_0_15_129
*980 FILLER_0_15_137
*981 FILLER_0_15_139
*982 FILLER_0_15_172
*983 FILLER_0_15_176
*984 FILLER_0_15_179
*985 FILLER_0_15_2
*986 FILLER_0_15_246
*987 FILLER_0_15_303
*988 FILLER_0_15_66
*989 FILLER_0_15_72
*990 FILLER_0_16_107
*991 FILLER_0_16_114
*992 FILLER_0_16_118
*993 FILLER_0_16_120
*994 FILLER_0_16_127
*995 FILLER_0_16_129
*996 FILLER_0_16_160
*997 FILLER_0_16_164
*998 FILLER_0_16_186
*999 FILLER_0_16_190
*1000 FILLER_0_16_2
*1001 FILLER_0_16_219
*1002 FILLER_0_16_221
*1003 FILLER_0_16_34
*1004 FILLER_0_16_37
*1005 FILLER_0_16_69
*1006 FILLER_0_16_72
*1007 FILLER_0_17_122
*1008 FILLER_0_17_126
*1009 FILLER_0_17_134
*1010 FILLER_0_17_152
*1011 FILLER_0_17_192
*1012 FILLER_0_17_2
*1013 FILLER_0_17_258
*1014 FILLER_0_17_34
*1015 FILLER_0_17_50
*1016 FILLER_0_17_58
*1017 FILLER_0_17_72
*1018 FILLER_0_17_82
*1019 FILLER_0_17_86
*1020 FILLER_0_17_90
*1021 FILLER_0_17_92
*1022 FILLER_0_18_120
*1023 FILLER_0_18_128
*1024 FILLER_0_18_134
*1025 FILLER_0_18_138
*1026 FILLER_0_18_142
*1027 FILLER_0_18_177
*1028 FILLER_0_18_194
*1029 FILLER_0_18_2
*1030 FILLER_0_18_210
*1031 FILLER_0_18_247
*1032 FILLER_0_18_274
*1033 FILLER_0_18_34
*1034 FILLER_0_18_37
*1035 FILLER_0_18_45
*1036 FILLER_0_18_49
*1037 FILLER_0_18_51
*1038 FILLER_0_18_81
*1039 FILLER_0_18_85
*1040 FILLER_0_18_93
*1041 FILLER_0_19_107
*1042 FILLER_0_19_150
*1043 FILLER_0_19_154
*1044 FILLER_0_19_2
*1045 FILLER_0_19_207
*1046 FILLER_0_19_209
*1047 FILLER_0_19_242
*1048 FILLER_0_19_263
*1049 FILLER_0_19_301
*1050 FILLER_0_19_303
*1051 FILLER_0_19_34
*1052 FILLER_0_19_50
*1053 FILLER_0_19_52
*1054 FILLER_0_19_63
*1055 FILLER_0_19_72
*1056 FILLER_0_19_80
*1057 FILLER_0_19_84
*1058 FILLER_0_19_92
*1059 FILLER_0_1_10
*1060 FILLER_0_1_109
*1061 FILLER_0_1_12
*1062 FILLER_0_1_155
*1063 FILLER_0_1_193
*1064 FILLER_0_1_197
*1065 FILLER_0_1_199
*1066 FILLER_0_1_2
*1067 FILLER_0_1_278
*1068 FILLER_0_1_282
*1069 FILLER_0_1_286
*1070 FILLER_0_1_302
*1071 FILLER_0_1_68
*1072 FILLER_0_20_107
*1073 FILLER_0_20_118
*1074 FILLER_0_20_120
*1075 FILLER_0_20_163
*1076 FILLER_0_20_177
*1077 FILLER_0_20_181
*1078 FILLER_0_20_183
*1079 FILLER_0_20_197
*1080 FILLER_0_20_2
*1081 FILLER_0_20_201
*1082 FILLER_0_20_205
*1083 FILLER_0_20_207
*1084 FILLER_0_20_247
*1085 FILLER_0_20_249
*1086 FILLER_0_20_302
*1087 FILLER_0_20_34
*1088 FILLER_0_21_110
*1089 FILLER_0_21_118
*1090 FILLER_0_21_126
*1091 FILLER_0_21_133
*1092 FILLER_0_21_153
*1093 FILLER_0_21_161
*1094 FILLER_0_21_169
*1095 FILLER_0_21_18
*1096 FILLER_0_21_2
*1097 FILLER_0_21_209
*1098 FILLER_0_21_26
*1099 FILLER_0_21_267
*1100 FILLER_0_21_30
*1101 FILLER_0_21_68
*1102 FILLER_0_21_77
*1103 FILLER_0_21_81
*1104 FILLER_0_21_83
*1105 FILLER_0_22_104
*1106 FILLER_0_22_113
*1107 FILLER_0_22_123
*1108 FILLER_0_22_127
*1109 FILLER_0_22_142
*1110 FILLER_0_22_159
*1111 FILLER_0_22_177
*1112 FILLER_0_22_179
*1113 FILLER_0_22_2
*1114 FILLER_0_22_225
*1115 FILLER_0_22_255
*1116 FILLER_0_22_302
*1117 FILLER_0_22_34
*1118 FILLER_0_22_37
*1119 FILLER_0_22_66
*1120 FILLER_0_22_68
*1121 FILLER_0_23_142
*1122 FILLER_0_23_18
*1123 FILLER_0_23_181
*1124 FILLER_0_23_185
*1125 FILLER_0_23_187
*1126 FILLER_0_23_190
*1127 FILLER_0_23_194
*1128 FILLER_0_23_198
*1129 FILLER_0_23_2
*1130 FILLER_0_23_202
*1131 FILLER_0_23_206
*1132 FILLER_0_23_220
*1133 FILLER_0_23_48
*1134 FILLER_0_23_50
*1135 FILLER_0_23_61
*1136 FILLER_0_23_65
*1137 FILLER_0_23_69
*1138 FILLER_0_23_72
*1139 FILLER_0_23_76
*1140 FILLER_0_23_83
*1141 FILLER_0_23_87
*1142 FILLER_0_23_91
*1143 FILLER_0_23_97
*1144 FILLER_0_24_104
*1145 FILLER_0_24_107
*1146 FILLER_0_24_123
*1147 FILLER_0_24_127
*1148 FILLER_0_24_164
*1149 FILLER_0_24_171
*1150 FILLER_0_24_185
*1151 FILLER_0_24_189
*1152 FILLER_0_24_2
*1153 FILLER_0_24_220
*1154 FILLER_0_24_277
*1155 FILLER_0_24_34
*1156 FILLER_0_24_37
*1157 FILLER_0_24_82
*1158 FILLER_0_24_84
*1159 FILLER_0_25_109
*1160 FILLER_0_25_113
*1161 FILLER_0_25_117
*1162 FILLER_0_25_133
*1163 FILLER_0_25_137
*1164 FILLER_0_25_139
*1165 FILLER_0_25_155
*1166 FILLER_0_25_18
*1167 FILLER_0_25_193
*1168 FILLER_0_25_197
*1169 FILLER_0_25_2
*1170 FILLER_0_25_201
*1171 FILLER_0_25_212
*1172 FILLER_0_25_218
*1173 FILLER_0_25_234
*1174 FILLER_0_25_236
*1175 FILLER_0_25_282
*1176 FILLER_0_25_64
*1177 FILLER_0_26_162
*1178 FILLER_0_26_166
*1179 FILLER_0_26_174
*1180 FILLER_0_26_184
*1181 FILLER_0_26_186
*1182 FILLER_0_26_189
*1183 FILLER_0_26_197
*1184 FILLER_0_26_2
*1185 FILLER_0_26_247
*1186 FILLER_0_26_34
*1187 FILLER_0_26_37
*1188 FILLER_0_26_45
*1189 FILLER_0_26_47
*1190 FILLER_0_27_115
*1191 FILLER_0_27_129
*1192 FILLER_0_27_139
*1193 FILLER_0_27_148
*1194 FILLER_0_27_152
*1195 FILLER_0_27_160
*1196 FILLER_0_27_170
*1197 FILLER_0_27_174
*1198 FILLER_0_27_197
*1199 FILLER_0_27_199
*1200 FILLER_0_27_2
*1201 FILLER_0_27_202
*1202 FILLER_0_27_206
*1203 FILLER_0_27_241
*1204 FILLER_0_27_303
*1205 FILLER_0_27_34
*1206 FILLER_0_27_42
*1207 FILLER_0_27_66
*1208 FILLER_0_27_78
*1209 FILLER_0_27_84
*1210 FILLER_0_27_86
*1211 FILLER_0_27_94
*1212 FILLER_0_28_112
*1213 FILLER_0_28_125
*1214 FILLER_0_28_133
*1215 FILLER_0_28_137
*1216 FILLER_0_28_141
*1217 FILLER_0_28_168
*1218 FILLER_0_28_177
*1219 FILLER_0_28_190
*1220 FILLER_0_28_2
*1221 FILLER_0_28_227
*1222 FILLER_0_28_247
*1223 FILLER_0_28_291
*1224 FILLER_0_28_303
*1225 FILLER_0_28_34
*1226 FILLER_0_28_37
*1227 FILLER_0_28_41
*1228 FILLER_0_28_48
*1229 FILLER_0_28_52
*1230 FILLER_0_28_56
*1231 FILLER_0_28_62
*1232 FILLER_0_28_70
*1233 FILLER_0_28_74
*1234 FILLER_0_28_85
*1235 FILLER_0_28_93
*1236 FILLER_0_29_114
*1237 FILLER_0_29_160
*1238 FILLER_0_29_162
*1239 FILLER_0_29_179
*1240 FILLER_0_29_18
*1241 FILLER_0_29_2
*1242 FILLER_0_29_203
*1243 FILLER_0_29_207
*1244 FILLER_0_29_212
*1245 FILLER_0_29_271
*1246 FILLER_0_29_278
*1247 FILLER_0_29_303
*1248 FILLER_0_29_48
*1249 FILLER_0_29_66
*1250 FILLER_0_29_82
*1251 FILLER_0_29_86
*1252 FILLER_0_2_104
*1253 FILLER_0_2_115
*1254 FILLER_0_2_177
*1255 FILLER_0_2_2
*1256 FILLER_0_2_226
*1257 FILLER_0_2_228
*1258 FILLER_0_2_241
*1259 FILLER_0_2_247
*1260 FILLER_0_2_252
*1261 FILLER_0_2_256
*1262 FILLER_0_2_288
*1263 FILLER_0_2_31
*1264 FILLER_0_2_37
*1265 FILLER_0_2_4
*1266 FILLER_0_30_121
*1267 FILLER_0_30_128
*1268 FILLER_0_30_134
*1269 FILLER_0_30_136
*1270 FILLER_0_30_159
*1271 FILLER_0_30_161
*1272 FILLER_0_30_192
*1273 FILLER_0_30_2
*1274 FILLER_0_30_227
*1275 FILLER_0_30_244
*1276 FILLER_0_30_273
*1277 FILLER_0_30_34
*1278 FILLER_0_30_60
*1279 FILLER_0_30_82
*1280 FILLER_0_30_91
*1281 FILLER_0_31_113
*1282 FILLER_0_31_127
*1283 FILLER_0_31_138
*1284 FILLER_0_31_142
*1285 FILLER_0_31_159
*1286 FILLER_0_31_2
*1287 FILLER_0_31_227
*1288 FILLER_0_31_279
*1289 FILLER_0_31_288
*1290 FILLER_0_31_303
*1291 FILLER_0_31_47
*1292 FILLER_0_31_62
*1293 FILLER_0_31_66
*1294 FILLER_0_31_88
*1295 FILLER_0_31_92
*1296 FILLER_0_32_117
*1297 FILLER_0_32_132
*1298 FILLER_0_32_152
*1299 FILLER_0_32_154
*1300 FILLER_0_32_173
*1301 FILLER_0_32_187
*1302 FILLER_0_32_189
*1303 FILLER_0_32_2
*1304 FILLER_0_32_244
*1305 FILLER_0_32_303
*1306 FILLER_0_32_34
*1307 FILLER_0_32_37
*1308 FILLER_0_32_45
*1309 FILLER_0_32_54
*1310 FILLER_0_32_58
*1311 FILLER_0_32_60
*1312 FILLER_0_32_89
*1313 FILLER_0_32_93
*1314 FILLER_0_32_97
*1315 FILLER_0_33_102
*1316 FILLER_0_33_129
*1317 FILLER_0_33_18
*1318 FILLER_0_33_193
*1319 FILLER_0_33_197
*1320 FILLER_0_33_2
*1321 FILLER_0_33_20
*1322 FILLER_0_33_201
*1323 FILLER_0_33_205
*1324 FILLER_0_33_209
*1325 FILLER_0_33_238
*1326 FILLER_0_33_242
*1327 FILLER_0_33_244
*1328 FILLER_0_33_276
*1329 FILLER_0_33_282
*1330 FILLER_0_33_69
*1331 FILLER_0_33_82
*1332 FILLER_0_34_111
*1333 FILLER_0_34_187
*1334 FILLER_0_34_191
*1335 FILLER_0_34_2
*1336 FILLER_0_34_201
*1337 FILLER_0_34_233
*1338 FILLER_0_34_237
*1339 FILLER_0_34_241
*1340 FILLER_0_34_247
*1341 FILLER_0_34_280
*1342 FILLER_0_34_282
*1343 FILLER_0_34_285
*1344 FILLER_0_34_289
*1345 FILLER_0_34_293
*1346 FILLER_0_34_295
*1347 FILLER_0_34_34
*1348 FILLER_0_34_41
*1349 FILLER_0_34_43
*1350 FILLER_0_34_55
*1351 FILLER_0_34_63
*1352 FILLER_0_35_18
*1353 FILLER_0_35_2
*1354 FILLER_0_35_208
*1355 FILLER_0_35_217
*1356 FILLER_0_35_221
*1357 FILLER_0_35_229
*1358 FILLER_0_35_300
*1359 FILLER_0_35_61
*1360 FILLER_0_35_65
*1361 FILLER_0_35_69
*1362 FILLER_0_35_76
*1363 FILLER_0_36_104
*1364 FILLER_0_36_107
*1365 FILLER_0_36_113
*1366 FILLER_0_36_172
*1367 FILLER_0_36_174
*1368 FILLER_0_36_177
*1369 FILLER_0_36_2
*1370 FILLER_0_36_230
*1371 FILLER_0_36_234
*1372 FILLER_0_36_302
*1373 FILLER_0_36_34
*1374 FILLER_0_36_37
*1375 FILLER_0_36_57
*1376 FILLER_0_36_92
*1377 FILLER_0_36_96
*1378 FILLER_0_37_142
*1379 FILLER_0_37_2
*1380 FILLER_0_37_201
*1381 FILLER_0_37_205
*1382 FILLER_0_37_209
*1383 FILLER_0_37_238
*1384 FILLER_0_37_274
*1385 FILLER_0_37_278
*1386 FILLER_0_37_282
*1387 FILLER_0_37_286
*1388 FILLER_0_37_290
*1389 FILLER_0_37_294
*1390 FILLER_0_37_34
*1391 FILLER_0_37_38
*1392 FILLER_0_37_40
*1393 FILLER_0_37_76
*1394 FILLER_0_37_80
*1395 FILLER_0_37_96
*1396 FILLER_0_38_11
*1397 FILLER_0_38_133
*1398 FILLER_0_38_135
*1399 FILLER_0_38_167
*1400 FILLER_0_38_169
*1401 FILLER_0_38_17
*1402 FILLER_0_38_172
*1403 FILLER_0_38_2
*1404 FILLER_0_38_21
*1405 FILLER_0_38_232
*1406 FILLER_0_38_236
*1407 FILLER_0_38_240
*1408 FILLER_0_38_27
*1409 FILLER_0_38_29
*1410 FILLER_0_38_303
*1411 FILLER_0_38_36
*1412 FILLER_0_38_7
*1413 FILLER_0_38_70
*1414 FILLER_0_3_120
*1415 FILLER_0_3_137
*1416 FILLER_0_3_139
*1417 FILLER_0_3_199
*1418 FILLER_0_3_2
*1419 FILLER_0_3_201
*1420 FILLER_0_3_244
*1421 FILLER_0_3_275
*1422 FILLER_0_3_279
*1423 FILLER_0_3_282
*1424 FILLER_0_3_298
*1425 FILLER_0_3_302
*1426 FILLER_0_3_34
*1427 FILLER_0_3_36
*1428 FILLER_0_3_42
*1429 FILLER_0_3_72
*1430 FILLER_0_4_107
*1431 FILLER_0_4_171
*1432 FILLER_0_4_2
*1433 FILLER_0_4_222
*1434 FILLER_0_4_226
*1435 FILLER_0_4_241
*1436 FILLER_0_4_268
*1437 FILLER_0_4_300
*1438 FILLER_0_4_34
*1439 FILLER_0_4_37
*1440 FILLER_0_5_124
*1441 FILLER_0_5_148
*1442 FILLER_0_5_183
*1443 FILLER_0_5_191
*1444 FILLER_0_5_195
*1445 FILLER_0_5_2
*1446 FILLER_0_5_209
*1447 FILLER_0_5_222
*1448 FILLER_0_5_246
*1449 FILLER_0_5_277
*1450 FILLER_0_5_279
*1451 FILLER_0_5_282
*1452 FILLER_0_5_294
*1453 FILLER_0_5_34
*1454 FILLER_0_5_66
*1455 FILLER_0_5_80
*1456 FILLER_0_5_82
*1457 FILLER_0_5_94
*1458 FILLER_0_6_103
*1459 FILLER_0_6_107
*1460 FILLER_0_6_121
*1461 FILLER_0_6_173
*1462 FILLER_0_6_177
*1463 FILLER_0_6_181
*1464 FILLER_0_6_197
*1465 FILLER_0_6_2
*1466 FILLER_0_6_205
*1467 FILLER_0_6_209
*1468 FILLER_0_6_212
*1469 FILLER_0_6_228
*1470 FILLER_0_6_235
*1471 FILLER_0_6_243
*1472 FILLER_0_6_247
*1473 FILLER_0_6_249
*1474 FILLER_0_6_295
*1475 FILLER_0_6_297
*1476 FILLER_0_6_34
*1477 FILLER_0_6_37
*1478 FILLER_0_6_39
*1479 FILLER_0_6_61
*1480 FILLER_0_6_70
*1481 FILLER_0_7_122
*1482 FILLER_0_7_126
*1483 FILLER_0_7_138
*1484 FILLER_0_7_156
*1485 FILLER_0_7_158
*1486 FILLER_0_7_18
*1487 FILLER_0_7_193
*1488 FILLER_0_7_197
*1489 FILLER_0_7_199
*1490 FILLER_0_7_2
*1491 FILLER_0_7_218
*1492 FILLER_0_7_22
*1493 FILLER_0_7_228
*1494 FILLER_0_7_282
*1495 FILLER_0_7_292
*1496 FILLER_0_7_296
*1497 FILLER_0_7_300
*1498 FILLER_0_7_67
*1499 FILLER_0_7_69
*1500 FILLER_0_8_104
*1501 FILLER_0_8_107
*1502 FILLER_0_8_111
*1503 FILLER_0_8_149
*1504 FILLER_0_8_153
*1505 FILLER_0_8_161
*1506 FILLER_0_8_165
*1507 FILLER_0_8_173
*1508 FILLER_0_8_177
*1509 FILLER_0_8_185
*1510 FILLER_0_8_187
*1511 FILLER_0_8_196
*1512 FILLER_0_8_2
*1513 FILLER_0_8_200
*1514 FILLER_0_8_230
*1515 FILLER_0_8_234
*1516 FILLER_0_8_238
*1517 FILLER_0_8_247
*1518 FILLER_0_8_249
*1519 FILLER_0_8_268
*1520 FILLER_0_8_276
*1521 FILLER_0_8_278
*1522 FILLER_0_8_281
*1523 FILLER_0_8_285
*1524 FILLER_0_8_289
*1525 FILLER_0_8_293
*1526 FILLER_0_8_295
*1527 FILLER_0_8_34
*1528 FILLER_0_8_37
*1529 FILLER_0_8_45
*1530 FILLER_0_8_78
*1531 FILLER_0_8_85
*1532 FILLER_0_8_95
*1533 FILLER_0_9_134
*1534 FILLER_0_9_138
*1535 FILLER_0_9_142
*1536 FILLER_0_9_158
*1537 FILLER_0_9_166
*1538 FILLER_0_9_2
*1539 FILLER_0_9_220
*1540 FILLER_0_9_226
*1541 FILLER_0_9_230
*1542 FILLER_0_9_270
*1543 FILLER_0_9_274
*1544 FILLER_0_9_278
*1545 FILLER_0_9_282
*1546 FILLER_0_9_286
*1547 FILLER_0_9_303
*1548 FILLER_0_9_34
*1549 FILLER_0_9_50
*1550 FILLER_0_9_58
*1551 FILLER_0_9_61
*1552 FILLER_0_9_69
*1553 FILLER_0_9_77
*1554 FILLER_0_9_81
*1555 FILLER_0_9_87
*1556 PHY_EDGE_ROW_0_Left_39
*1557 PHY_EDGE_ROW_0_Right_0
*1558 PHY_EDGE_ROW_10_Left_49
*1559 PHY_EDGE_ROW_10_Right_10
*1560 PHY_EDGE_ROW_11_Left_50
*1561 PHY_EDGE_ROW_11_Right_11
*1562 PHY_EDGE_ROW_12_Left_51
*1563 PHY_EDGE_ROW_12_Right_12
*1564 PHY_EDGE_ROW_13_Left_52
*1565 PHY_EDGE_ROW_13_Right_13
*1566 PHY_EDGE_ROW_14_Left_53
*1567 PHY_EDGE_ROW_14_Right_14
*1568 PHY_EDGE_ROW_15_Left_54
*1569 PHY_EDGE_ROW_15_Right_15
*1570 PHY_EDGE_ROW_16_Left_55
*1571 PHY_EDGE_ROW_16_Right_16
*1572 PHY_EDGE_ROW_17_Left_56
*1573 PHY_EDGE_ROW_17_Right_17
*1574 PHY_EDGE_ROW_18_Left_57
*1575 PHY_EDGE_ROW_18_Right_18
*1576 PHY_EDGE_ROW_19_Left_58
*1577 PHY_EDGE_ROW_19_Right_19
*1578 PHY_EDGE_ROW_1_Left_40
*1579 PHY_EDGE_ROW_1_Right_1
*1580 PHY_EDGE_ROW_20_Left_59
*1581 PHY_EDGE_ROW_20_Right_20
*1582 PHY_EDGE_ROW_21_Left_60
*1583 PHY_EDGE_ROW_21_Right_21
*1584 PHY_EDGE_ROW_22_Left_61
*1585 PHY_EDGE_ROW_22_Right_22
*1586 PHY_EDGE_ROW_23_Left_62
*1587 PHY_EDGE_ROW_23_Right_23
*1588 PHY_EDGE_ROW_24_Left_63
*1589 PHY_EDGE_ROW_24_Right_24
*1590 PHY_EDGE_ROW_25_Left_64
*1591 PHY_EDGE_ROW_25_Right_25
*1592 PHY_EDGE_ROW_26_Left_65
*1593 PHY_EDGE_ROW_26_Right_26
*1594 PHY_EDGE_ROW_27_Left_66
*1595 PHY_EDGE_ROW_27_Right_27
*1596 PHY_EDGE_ROW_28_Left_67
*1597 PHY_EDGE_ROW_28_Right_28
*1598 PHY_EDGE_ROW_29_Left_68
*1599 PHY_EDGE_ROW_29_Right_29
*1600 PHY_EDGE_ROW_2_Left_41
*1601 PHY_EDGE_ROW_2_Right_2
*1602 PHY_EDGE_ROW_30_Left_69
*1603 PHY_EDGE_ROW_30_Right_30
*1604 PHY_EDGE_ROW_31_Left_70
*1605 PHY_EDGE_ROW_31_Right_31
*1606 PHY_EDGE_ROW_32_Left_71
*1607 PHY_EDGE_ROW_32_Right_32
*1608 PHY_EDGE_ROW_33_Left_72
*1609 PHY_EDGE_ROW_33_Right_33
*1610 PHY_EDGE_ROW_34_Left_73
*1611 PHY_EDGE_ROW_34_Right_34
*1612 PHY_EDGE_ROW_35_Left_74
*1613 PHY_EDGE_ROW_35_Right_35
*1614 PHY_EDGE_ROW_36_Left_75
*1615 PHY_EDGE_ROW_36_Right_36
*1616 PHY_EDGE_ROW_37_Left_76
*1617 PHY_EDGE_ROW_37_Right_37
*1618 PHY_EDGE_ROW_38_Left_77
*1619 PHY_EDGE_ROW_38_Right_38
*1620 PHY_EDGE_ROW_3_Left_42
*1621 PHY_EDGE_ROW_3_Right_3
*1622 PHY_EDGE_ROW_4_Left_43
*1623 PHY_EDGE_ROW_4_Right_4
*1624 PHY_EDGE_ROW_5_Left_44
*1625 PHY_EDGE_ROW_5_Right_5
*1626 PHY_EDGE_ROW_6_Left_45
*1627 PHY_EDGE_ROW_6_Right_6
*1628 PHY_EDGE_ROW_7_Left_46
*1629 PHY_EDGE_ROW_7_Right_7
*1630 PHY_EDGE_ROW_8_Left_47
*1631 PHY_EDGE_ROW_8_Right_8
*1632 PHY_EDGE_ROW_9_Left_48
*1633 PHY_EDGE_ROW_9_Right_9
*1634 TAP_TAPCELL_ROW_0_78
*1635 TAP_TAPCELL_ROW_0_79
*1636 TAP_TAPCELL_ROW_0_80
*1637 TAP_TAPCELL_ROW_0_81
*1638 TAP_TAPCELL_ROW_0_82
*1639 TAP_TAPCELL_ROW_0_83